<?xml version="1.0" encoding="UTF-8"?>

<!-- generated on Thu Jul  4 16:49:12 2019 by Eclipse SUMO netconvert Version v1_2_0+0959-4eae248
<configuration xmlns:xsi="http://www.w3.org/2001/XMLSchema-instance" xsi:noNamespaceSchemaLocation="http://sumo.dlr.de/xsd/netconvertConfiguration.xsd">

    <input>
        <osm-files value="./scenario/../data/map.osm"/>
    </input>

    <output>
        <output-file value="./scenario/map.net.xml"/>
        <output.street-names value="true"/>
        <output.original-names value="true"/>
        <ptstop-output value="./scenario/map.ptstops.add.xml"/>
        <ptline-output value="./scenario/map.ptlines.xml"/>
    </output>

    <projection>
        <proj.utm value="true"/>
    </projection>

    <processing>
        <geometry.remove value="true"/>
        <roundabouts.guess value="true"/>
    </processing>

    <tls_building>
        <tls.discard-simple value="true"/>
        <tls.join value="true"/>
        <tls.guess-signals value="true"/>
        <tls.default-type value="actuated"/>
    </tls_building>

    <ramp_guessing>
        <ramps.guess value="true"/>
    </ramp_guessing>

    <junctions>
        <junctions.join value="true"/>
        <junctions.corner-detail value="5"/>
    </junctions>

    <pedestrian>
        <crossings.guess value="true"/>
    </pedestrian>

    <report>
        <verbose value="true"/>
    </report>

</configuration>
-->

<net version="1.3" junctionCornerDetail="5" walkingareas="true" limitTurnSpeed="5.50" xmlns:xsi="http://www.w3.org/2001/XMLSchema-instance" xsi:noNamespaceSchemaLocation="http://sumo.dlr.de/xsd/net_file.xsd">

    <location netOffset="-345334.99,-4829121.96" convBoundary="0.00,0.00,2271.51,1723.31" origBoundary="7.082431,43.599346,7.111786,43.617883" projParameter="+proj=utm +zone=32 +ellps=WGS84 +datum=WGS84 +units=m +no_defs"/>

    <type id="highway.bridleway" priority="1" numLanes="1" speed="2.78" allow="pedestrian" oneway="1" width="2.00"/>
    <type id="highway.bus_guideway" priority="1" numLanes="1" speed="27.78" allow="bus" oneway="1"/>
    <type id="highway.cycleway" priority="1" numLanes="1" speed="8.33" allow="bicycle" oneway="0" width="1.00"/>
    <type id="highway.footway" priority="1" numLanes="1" speed="2.78" allow="pedestrian" oneway="1" width="2.00"/>
    <type id="highway.ford" priority="1" numLanes="1" speed="2.78" allow="army" oneway="0"/>
    <type id="highway.living_street" priority="2" numLanes="1" speed="2.78" disallow="tram rail_urban rail rail_electric rail_fast ship" oneway="0"/>
    <type id="highway.motorway" priority="14" numLanes="2" speed="39.44" allow="private emergency authority army vip passenger hov taxi bus coach delivery truck trailer motorcycle evehicle custom1 custom2" oneway="1"/>
    <type id="highway.motorway_link" priority="9" numLanes="1" speed="22.22" allow="private emergency authority army vip passenger hov taxi bus coach delivery truck trailer motorcycle evehicle custom1 custom2" oneway="1"/>
    <type id="highway.path" priority="1" numLanes="1" speed="2.78" allow="pedestrian bicycle" oneway="1" width="2.00"/>
    <type id="highway.pedestrian" priority="1" numLanes="1" speed="2.78" allow="pedestrian" oneway="1" width="2.00"/>
    <type id="highway.primary" priority="12" numLanes="2" speed="27.78" disallow="tram rail_urban rail rail_electric rail_fast ship" oneway="0"/>
    <type id="highway.primary_link" priority="7" numLanes="1" speed="22.22" disallow="tram rail_urban rail rail_electric rail_fast ship" oneway="0"/>
    <type id="highway.raceway" priority="15" numLanes="2" speed="83.33" allow="vip" oneway="0"/>
    <type id="highway.residential" priority="3" numLanes="1" speed="13.89" disallow="tram rail_urban rail rail_electric rail_fast ship" oneway="0"/>
    <type id="highway.secondary" priority="11" numLanes="2" speed="27.78" disallow="tram rail_urban rail rail_electric rail_fast ship" oneway="0"/>
    <type id="highway.secondary_link" priority="6" numLanes="1" speed="22.22" disallow="tram rail_urban rail rail_electric rail_fast ship" oneway="0"/>
    <type id="highway.service" priority="1" numLanes="1" speed="5.56" allow="pedestrian delivery bicycle" oneway="0"/>
    <type id="highway.stairs" priority="1" numLanes="1" speed="1.39" allow="pedestrian" oneway="1" width="2.00"/>
    <type id="highway.step" priority="1" numLanes="1" speed="1.39" allow="pedestrian" oneway="1" width="2.00"/>
    <type id="highway.steps" priority="1" numLanes="1" speed="1.39" allow="pedestrian" oneway="1" width="2.00"/>
    <type id="highway.tertiary" priority="10" numLanes="1" speed="22.22" disallow="tram rail_urban rail rail_electric rail_fast ship" oneway="0"/>
    <type id="highway.tertiary_link" priority="5" numLanes="1" speed="22.22" disallow="tram rail_urban rail rail_electric rail_fast ship" oneway="0"/>
    <type id="highway.track" priority="1" numLanes="1" speed="5.56" disallow="tram rail_urban rail rail_electric rail_fast ship" oneway="0"/>
    <type id="highway.trunk" priority="13" numLanes="2" speed="27.78" disallow="pedestrian bicycle tram rail_urban rail rail_electric rail_fast ship" oneway="0"/>
    <type id="highway.trunk_link" priority="8" numLanes="1" speed="22.22" disallow="pedestrian bicycle tram rail_urban rail rail_electric rail_fast ship" oneway="0"/>
    <type id="highway.unclassified" priority="4" numLanes="1" speed="13.89" disallow="tram rail_urban rail rail_electric rail_fast ship" oneway="0"/>
    <type id="highway.unsurfaced" priority="1" numLanes="1" speed="8.33" disallow="tram rail_urban rail rail_electric rail_fast ship" oneway="0"/>
    <type id="railway.highspeed" priority="21" numLanes="1" speed="69.44" allow="rail_fast" oneway="1"/>
    <type id="railway.light_rail" priority="19" numLanes="1" speed="27.78" allow="rail_urban" oneway="1"/>
    <type id="railway.preserved" priority="16" numLanes="1" speed="27.78" allow="rail" oneway="1"/>
    <type id="railway.rail" priority="20" numLanes="1" speed="44.44" allow="rail" oneway="1"/>
    <type id="railway.subway" priority="18" numLanes="1" speed="27.78" allow="rail_urban" oneway="1"/>
    <type id="railway.tram" priority="17" numLanes="1" speed="13.89" allow="tram" oneway="1"/>

    <edge id=":1015092122_0" function="internal">
        <lane id=":1015092122_0_0" index="0" allow="pedestrian delivery bicycle" speed="5.56" length="9.45" shape="224.38,501.71 215.28,499.18"/>
    </edge>
    <edge id=":1015092122_1" function="internal">
        <lane id=":1015092122_1_0" index="0" allow="pedestrian delivery bicycle" speed="5.56" length="7.98" shape="224.38,501.71 221.82,500.79 220.07,499.66 219.11,498.33 218.96,496.80"/>
    </edge>
    <edge id=":1015092122_2" function="internal">
        <lane id=":1015092122_2_0" index="0" allow="pedestrian delivery bicycle" speed="5.56" length="8.11" shape="222.12,497.27 221.49,498.76 220.14,499.58 218.07,499.72 215.28,499.18"/>
    </edge>
    <edge id=":1015092122_3" function="internal">
        <lane id=":1015092122_3_0" index="0" allow="pedestrian delivery bicycle" speed="3.65" length="4.67" shape="222.12,497.27 221.15,498.34 220.30,498.62 219.57,498.10 218.96,496.80"/>
    </edge>
    <edge id=":1015092122_w0" function="walkingarea">
        <lane id=":1015092122_w0_0" index="0" allow="pedestrian" speed="1.00" length="6.07" width="3.20" shape="223.96,503.25 224.81,500.16 223.70,497.51 220.54,497.04 220.54,497.04 217.38,496.56 215.71,497.64 214.85,500.72"/>
    </edge>
    <edge id=":1015092123_0" function="internal">
        <lane id=":1015092123_0_0" index="0" allow="pedestrian delivery bicycle" speed="5.07" length="5.01" shape="573.75,413.77 573.38,415.10 573.52,416.23 574.16,417.16 575.31,417.89"/>
    </edge>
    <edge id=":1015092123_1" function="internal">
        <lane id=":1015092123_1_0" index="0" allow="pedestrian delivery bicycle" speed="5.56" length="6.37" shape="573.75,413.77 571.12,419.57"/>
    </edge>
    <edge id=":1015092123_2" function="internal">
        <lane id=":1015092123_2_0" index="0" allow="pedestrian delivery bicycle" speed="3.65" length="4.67" shape="573.75,413.77 572.54,414.55 571.64,414.60 571.07,413.92 570.81,412.50"/>
    </edge>
    <edge id=":1015092123_3" function="internal">
        <lane id=":1015092123_3_0" index="0" allow="pedestrian delivery bicycle" speed="5.07" length="5.05" shape="566.67,414.10 568.02,414.46 569.16,414.32 570.09,413.66 570.81,412.50"/>
    </edge>
    <edge id=":1015092123_4" function="internal">
        <lane id=":1015092123_4_0" index="0" allow="pedestrian delivery bicycle" speed="5.56" length="9.44" shape="566.67,414.10 575.31,417.89"/>
    </edge>
    <edge id=":1015092123_5" function="internal">
        <lane id=":1015092123_5_0" index="0" allow="pedestrian delivery bicycle" speed="5.56" length="7.87" shape="566.67,414.10 569.14,415.38 570.71,416.71 571.37,418.11 571.12,419.57"/>
    </edge>
    <edge id=":1015092123_6" function="internal">
        <lane id=":1015092123_6_0" index="0" allow="pedestrian delivery bicycle" speed="5.56" length="6.26" shape="568.22,418.20 570.81,412.50"/>
    </edge>
    <edge id=":1015092123_7" function="internal">
        <lane id=":1015092123_7_0" index="0" allow="pedestrian delivery bicycle" speed="5.56" length="7.83" shape="568.22,418.20 569.18,417.09 570.68,416.68 572.72,416.94 575.31,417.89"/>
    </edge>
    <edge id=":1015092123_8" function="internal">
        <lane id=":1015092123_8_0" index="0" allow="pedestrian delivery bicycle" speed="3.65" length="4.67" shape="568.22,418.20 569.46,417.46 570.36,417.44 570.91,418.14 571.12,419.57"/>
    </edge>
    <edge id=":1015092123_w0" function="walkingarea">
        <lane id=":1015092123_w0_0" index="0" allow="pedestrian" speed="1.00" length="5.91" width="3.20" shape="574.65,419.35 575.97,416.44 575.21,414.41 572.28,413.14 572.28,413.14 569.34,411.87 567.30,412.62 566.04,415.57 566.78,417.51 569.67,418.88 569.67,418.88 572.56,420.25 574.21,419.20 573.81,419.18 573.44,419.27 573.11,419.48 572.82,419.81"/>
    </edge>
    <edge id=":1015092124_0" function="internal">
        <lane id=":1015092124_0_0" index="0" allow="pedestrian delivery bicycle" speed="5.56" length="12.10" shape="653.53,513.97 655.03,510.34 655.49,507.28 654.90,504.79 653.25,502.89"/>
    </edge>
    <edge id=":1015092124_1" function="internal">
        <lane id=":1015092124_1_0" index="0" allow="pedestrian delivery bicycle" speed="5.56" length="14.61" shape="653.53,513.97 656.21,509.88 658.93,507.92 661.67,508.10 664.44,510.41"/>
    </edge>
    <edge id=":1015092124_2" function="internal">
        <lane id=":1015092124_2_0" index="0" allow="pedestrian delivery bicycle" speed="3.85" length="5.44" shape="653.53,513.97 654.37,512.52 655.27,512.00 656.23,512.41 657.24,513.75"/>
    </edge>
    <edge id=":1015092124_3" function="internal">
        <lane id=":1015092124_3_0" index="0" allow="pedestrian delivery bicycle" speed="4.93" length="7.67" shape="661.97,512.44 661.13,510.64 660.06,510.26 658.77,511.29 657.24,513.75"/>
    </edge>
    <edge id=":1015092124_4" function="internal">
        <lane id=":1015092124_4_0" index="0" allow="pedestrian delivery bicycle" speed="5.56" length="13.21" shape="661.97,512.44 660.59,509.34 658.60,506.98 656.11,504.97 653.25,502.89"/>
    </edge>
    <edge id=":1015092124_5" function="internal">
        <lane id=":1015092124_5_0" index="0" allow="pedestrian delivery bicycle" speed="3.85" length="4.67" shape="661.97,512.44 661.83,511.00 662.19,510.19 663.07,509.99 664.44,510.41"/>
    </edge>
    <edge id=":1015092124_6" function="internal">
        <lane id=":1015092124_6_0" index="0" allow="pedestrian delivery bicycle" speed="5.56" length="13.75" shape="655.17,500.32 657.86,502.62 660.12,505.04 662.22,507.63 664.44,510.41"/>
    </edge>
    <edge id=":1015092124_7" function="internal">
        <lane id=":1015092124_7_0" index="0" allow="pedestrian delivery bicycle" speed="5.56" length="14.98" shape="655.17,500.32 657.74,502.98 658.94,506.11 658.78,509.70 657.24,513.75"/>
    </edge>
    <edge id=":1015092124_8" function="internal">
        <lane id=":1015092124_8_0" index="0" allow="pedestrian delivery bicycle" speed="3.65" length="4.67" shape="655.17,500.32 655.65,501.68 655.49,502.56 654.69,502.96 653.25,502.89"/>
    </edge>
    <edge id=":1015092124_w0" function="walkingarea">
        <lane id=":1015092124_w0_0" index="0" allow="pedestrian" speed="1.00" length="9.80" width="3.20" shape="652.11,513.24 654.95,514.71 655.82,513.02 658.66,514.49 660.43,512.88 663.51,511.99 663.21,511.43 665.68,509.39 656.12,499.04 654.21,501.61 654.21,501.61 652.30,504.17 653.07,511.14 653.66,509.28 653.87,507.65 653.72,506.25 653.19,505.10"/>
    </edge>
    <edge id=":1015092125_0" function="internal">
        <lane id=":1015092125_0_0" index="0" allow="pedestrian delivery bicycle" speed="3.65" length="4.67" shape="278.12,421.95 279.09,420.88 279.94,420.60 280.67,421.11 281.29,422.41"/>
    </edge>
    <edge id=":1015092126_0" function="internal">
        <lane id=":1015092126_0_0" index="0" allow="pedestrian delivery bicycle" speed="5.56" length="9.40" shape="465.03,465.79 456.38,462.10"/>
    </edge>
    <edge id=":1015092126_1" function="internal">
        <lane id=":1015092126_1_0" index="0" allow="pedestrian delivery bicycle" speed="5.56" length="7.86" shape="465.03,465.79 462.56,464.51 460.99,463.18 460.33,461.78 460.58,460.33"/>
    </edge>
    <edge id=":1015092126_2" function="internal">
        <lane id=":1015092126_2_0" index="0" allow="pedestrian delivery bicycle" speed="5.56" length="7.82" shape="463.48,461.69 462.53,462.79 461.03,463.22 458.98,462.99 456.38,462.10"/>
    </edge>
    <edge id=":1015092126_3" function="internal">
        <lane id=":1015092126_3_0" index="0" allow="pedestrian delivery bicycle" speed="3.65" length="4.67" shape="463.48,461.69 462.24,462.43 461.35,462.46 460.79,461.75 460.58,460.33"/>
    </edge>
    <edge id=":1015092126_w0" function="walkingarea">
        <lane id=":1015092126_w0_0" index="0" allow="pedestrian" speed="1.00" length="5.95" width="3.20" shape="464.41,467.26 465.66,464.32 464.92,462.37 462.03,461.01 462.03,461.01 459.13,459.64 457.01,460.63 455.76,463.57"/>
    </edge>
    <edge id=":1015092131_0" function="internal">
        <lane id=":1015092131_0_0" index="0" allow="pedestrian delivery bicycle" speed="3.65" length="4.67" shape="631.67,389.23 632.92,388.52 633.82,388.52 634.35,389.24 634.52,390.67"/>
    </edge>
    <edge id=":1015092136_0" function="internal">
        <lane id=":1015092136_0_0" index="0" allow="pedestrian delivery bicycle" speed="3.65" length="4.67" shape="602.32,378.43 603.56,377.69 604.46,377.68 605.01,378.39 605.21,379.81"/>
    </edge>
    <edge id=":1015092138_0" function="internal">
        <lane id=":1015092138_0_0" index="0" allow="pedestrian delivery bicycle" speed="4.92" length="4.71" shape="641.27,444.36 640.86,445.66 640.92,446.76 641.46,447.64 642.47,448.31"/>
    </edge>
    <edge id=":1015092138_1" function="internal">
        <lane id=":1015092138_1_0" index="0" allow="pedestrian delivery bicycle" speed="5.56" length="6.30" shape="641.27,444.36 638.60,450.06"/>
    </edge>
    <edge id=":1015092138_2" function="internal">
        <lane id=":1015092138_2_0" index="0" allow="pedestrian delivery bicycle" speed="3.65" length="4.67" shape="641.27,444.36 640.04,445.11 639.15,445.15 638.59,444.45 638.36,443.03"/>
    </edge>
    <edge id=":1015092138_3" function="internal">
        <lane id=":1015092138_3_0" index="0" allow="pedestrian delivery bicycle" speed="5.06" length="5.04" shape="634.21,444.57 635.54,444.95 636.67,444.83 637.61,444.18 638.36,443.03"/>
    </edge>
    <edge id=":1015092138_4" function="internal">
        <lane id=":1015092138_4_0" index="0" allow="pedestrian delivery bicycle" speed="5.56" length="9.07" shape="634.21,444.57 642.47,448.31"/>
    </edge>
    <edge id=":1015092138_5" function="internal">
        <lane id=":1015092138_5_0" index="0" allow="pedestrian delivery bicycle" speed="5.56" length="7.81" shape="634.21,444.57 636.65,445.89 638.19,447.25 638.84,448.64 638.60,450.06"/>
    </edge>
    <edge id=":1015092138_6" function="internal">
        <lane id=":1015092138_6_0" index="0" allow="pedestrian delivery bicycle" speed="5.56" length="6.24" shape="635.72,448.69 638.36,443.03"/>
    </edge>
    <edge id=":1015092138_7" function="internal">
        <lane id=":1015092138_7_0" index="0" allow="pedestrian delivery bicycle" speed="5.56" length="7.49" shape="635.72,448.69 636.64,447.60 638.08,447.18 640.02,447.41 642.47,448.31"/>
    </edge>
    <edge id=":1015092138_8" function="internal">
        <lane id=":1015092138_8_0" index="0" allow="pedestrian delivery bicycle" speed="3.65" length="4.67" shape="635.72,448.69 636.95,447.95 637.85,447.93 638.40,448.64 638.60,450.06"/>
    </edge>
    <edge id=":1015092138_w0" function="walkingarea">
        <lane id=":1015092138_w0_0" index="0" allow="pedestrian" speed="1.00" length="5.79" width="3.20" shape="641.81,449.77 643.13,446.85 642.72,445.02 639.81,443.69 639.81,443.69 636.90,442.36 634.87,443.11 633.55,446.02 634.27,448.00 637.16,449.37 637.16,449.37 640.05,450.75 641.47,449.66 641.14,449.66 640.84,449.77 640.56,449.99 640.29,450.32"/>
    </edge>
    <edge id=":1015092140_0" function="internal">
        <lane id=":1015092140_0_0" index="0" allow="pedestrian delivery bicycle" speed="5.56" length="11.05" shape="435.12,430.78 446.03,428.99"/>
    </edge>
    <edge id=":1015092140_1" function="internal">
        <lane id=":1015092140_1_0" index="0" allow="pedestrian delivery bicycle" speed="5.56" length="10.42" shape="435.12,430.78 438.69,430.56 440.76,431.30 441.33,433.01 440.40,435.69"/>
    </edge>
    <edge id=":1015092140_2" function="internal">
        <lane id=":1015092140_2_0" index="0" allow="pedestrian delivery bicycle" speed="5.56" length="10.28" shape="437.58,434.19 438.94,432.30 440.80,430.80 443.16,429.70 446.03,428.99"/>
    </edge>
    <edge id=":1015092140_3" function="internal">
        <lane id=":1015092140_3_0" index="0" allow="pedestrian delivery bicycle" speed="3.65" length="4.67" shape="437.58,434.19 438.84,433.51 439.74,433.53 440.26,434.26 440.40,435.69"/>
    </edge>
    <edge id=":1015092140_w0" function="walkingarea">
        <lane id=":1015092140_w0_0" index="0" allow="pedestrian" speed="1.00" length="7.39" width="3.20" shape="446.29,430.56 445.76,427.41 434.86,429.20 435.39,432.36 436.16,433.44 438.99,434.94 438.99,434.94 441.82,436.44 445.75,430.80 445.13,431.33 444.43,432.16 443.64,433.29 442.77,434.71"/>
    </edge>
    <edge id=":1015092142_0" function="internal">
        <lane id=":1015092142_0_0" index="0" allow="pedestrian delivery bicycle" speed="3.65" length="4.67" shape="617.00,382.19 618.23,381.44 619.13,381.41 619.68,382.11 619.90,383.54"/>
    </edge>
    <edge id=":1015092143_0" function="internal">
        <lane id=":1015092143_0_0" index="0" allow="pedestrian delivery bicycle" speed="5.56" length="9.40" shape="420.80,445.93 412.28,441.96"/>
    </edge>
    <edge id=":1015092143_1" function="internal">
        <lane id=":1015092143_1_0" index="0" allow="pedestrian delivery bicycle" speed="5.56" length="7.78" shape="420.80,445.93 418.39,444.59 416.85,443.23 416.19,441.84 416.39,440.42"/>
    </edge>
    <edge id=":1015092143_2" function="internal">
        <lane id=":1015092143_2_0" index="0" allow="pedestrian delivery bicycle" speed="5.56" length="7.80" shape="419.31,441.73 418.38,442.83 416.91,443.24 414.87,442.95 412.28,441.96"/>
    </edge>
    <edge id=":1015092143_3" function="internal">
        <lane id=":1015092143_3_0" index="0" allow="pedestrian delivery bicycle" speed="3.65" length="4.67" shape="419.31,441.73 418.09,442.50 417.20,442.54 416.63,441.85 416.39,440.42"/>
    </edge>
    <edge id=":1015092143_w0" function="walkingarea">
        <lane id=":1015092143_w0_0" index="0" allow="pedestrian" speed="1.00" length="5.92" width="3.20" shape="420.13,447.38 421.48,444.48 420.77,442.38 417.85,441.08 417.85,441.08 414.92,439.77 412.95,440.51 411.60,443.41"/>
    </edge>
    <edge id=":1015092145_0" function="internal">
        <lane id=":1015092145_0_0" index="0" allow="pedestrian delivery bicycle" speed="5.56" length="11.74" shape="648.44,453.25 650.58,455.66 651.94,457.88 652.95,460.33 654.01,463.42"/>
    </edge>
    <edge id=":1015092145_1" function="internal">
        <lane id=":1015092145_1_0" index="0" allow="pedestrian delivery bicycle" speed="5.56" length="10.79" shape="648.44,453.25 650.14,455.46 650.95,457.84 650.87,460.41 649.91,463.16"/>
    </edge>
    <edge id=":1015092145_2" function="internal">
        <lane id=":1015092145_2_0" index="0" allow="pedestrian delivery bicycle" speed="5.56" length="11.36" shape="647.04,461.74 648.88,459.01 650.66,458.38 652.37,459.85 654.01,463.42"/>
    </edge>
    <edge id=":1015092145_3" function="internal">
        <lane id=":1015092145_3_0" index="0" allow="pedestrian delivery bicycle" speed="3.65" length="4.67" shape="647.04,461.74 648.29,461.02 649.19,461.02 649.73,461.73 649.91,463.16"/>
    </edge>
    <edge id=":1015092145_w0" function="walkingarea">
        <lane id=":1015092145_w0_0" index="0" allow="pedestrian" speed="1.00" length="7.45" width="3.20" shape="652.50,463.94 655.52,462.89 649.56,452.11 647.31,454.39 645.61,461.03 648.48,462.45 648.48,462.45 651.34,463.87 652.33,463.55 652.15,463.31 651.97,463.22 651.77,463.28 651.56,463.50"/>
    </edge>
    <edge id=":1015092153_0" function="internal">
        <lane id=":1015092153_0_0" index="0" allow="pedestrian delivery bicycle" speed="5.56" length="10.73" shape="536.51,497.27 534.10,495.57 532.97,493.67 532.17,491.39 530.73,488.58"/>
    </edge>
    <edge id=":1015092153_1" function="internal">
        <lane id=":1015092153_1_0" index="0" allow="pedestrian delivery bicycle" speed="5.56" length="10.29" shape="536.51,497.27 534.65,495.85 533.77,493.87 533.88,491.35 534.98,488.27"/>
    </edge>
    <edge id=":1015092153_2" function="internal">
        <lane id=":1015092153_2_0" index="0" allow="pedestrian delivery bicycle" speed="5.56" length="9.76" shape="537.87,489.64 536.42,491.69 534.75,492.20 532.85,491.16 530.73,488.58"/>
    </edge>
    <edge id=":1015092153_3" function="internal">
        <lane id=":1015092153_3_0" index="0" allow="pedestrian delivery bicycle" speed="3.65" length="4.67" shape="537.87,489.64 536.64,490.39 535.74,490.40 535.19,489.70 534.98,488.27"/>
    </edge>
    <edge id=":1015092153_w0" function="walkingarea">
        <lane id=":1015092153_w0_0" index="0" allow="pedestrian" speed="1.00" length="7.00" width="3.20" shape="535.82,498.71 537.21,495.83 539.32,490.33 536.43,488.96 536.43,488.96 533.54,487.59 532.06,487.69 529.40,489.47 533.80,497.49 532.60,496.26 531.88,494.92 531.32,493.40 530.60,491.61"/>
    </edge>
    <edge id=":1015092156_0" function="internal">
        <lane id=":1015092156_0_0" index="0" allow="pedestrian delivery bicycle" speed="3.65" length="4.67" shape="580.75,389.52 581.96,388.73 582.85,388.68 583.43,389.37 583.69,390.79"/>
    </edge>
    <edge id=":1015092158_0" function="internal">
        <lane id=":1015092158_0_0" index="0" allow="pedestrian delivery bicycle" speed="5.56" length="9.44" shape="254.45,510.05 245.35,507.52"/>
    </edge>
    <edge id=":1015092158_1" function="internal">
        <lane id=":1015092158_1_0" index="0" allow="pedestrian delivery bicycle" speed="5.56" length="7.95" shape="254.45,510.05 251.88,509.12 250.13,508.00 249.19,506.68 249.05,505.16"/>
    </edge>
    <edge id=":1015092158_2" function="internal">
        <lane id=":1015092158_2_0" index="0" allow="pedestrian delivery bicycle" speed="5.56" length="8.06" shape="252.21,505.69 251.56,507.14 250.20,507.93 248.13,508.06 245.35,507.52"/>
    </edge>
    <edge id=":1015092158_3" function="internal">
        <lane id=":1015092158_3_0" index="0" allow="pedestrian delivery bicycle" speed="3.65" length="4.67" shape="252.21,505.69 251.22,506.74 250.37,507.00 249.64,506.48 249.05,505.16"/>
    </edge>
    <edge id=":1015092158_w0" function="walkingarea">
        <lane id=":1015092158_w0_0" index="0" allow="pedestrian" speed="1.00" length="6.05" width="3.20" shape="254.02,511.59 254.87,508.50 253.79,505.95 250.63,505.43 250.63,505.43 247.47,504.90 245.78,505.98 244.93,509.06"/>
    </edge>
    <edge id=":1015092160_0" function="internal">
        <lane id=":1015092160_0_0" index="0" allow="pedestrian delivery bicycle" speed="5.56" length="10.12" shape="332.03,432.45 322.37,435.43"/>
    </edge>
    <edge id=":1015092160_1" function="internal">
        <lane id=":1015092160_1_0" index="0" allow="pedestrian delivery bicycle" speed="5.56" length="12.83" shape="332.03,432.45 328.29,433.07 325.81,432.21 324.61,429.89 324.67,426.09"/>
    </edge>
    <edge id=":1015092160_2" function="internal">
        <lane id=":1015092160_2_0" index="0" allow="pedestrian delivery bicycle" speed="3.65" length="4.67" shape="332.03,432.45 330.65,432.04 330.03,431.39 330.18,430.51 331.09,429.39"/>
    </edge>
    <edge id=":1015092160_3" function="internal">
        <lane id=":1015092160_3_0" index="0" allow="pedestrian delivery bicycle" speed="4.70" length="5.68" shape="327.84,426.58 327.81,428.26 328.34,429.29 329.44,429.67 331.09,429.39"/>
    </edge>
    <edge id=":1015092160_4" function="internal">
        <lane id=":1015092160_4_0" index="0" allow="pedestrian delivery bicycle" speed="5.56" length="10.94" shape="327.84,426.58 327.06,429.95 325.89,432.55 324.32,434.38 322.37,435.43"/>
    </edge>
    <edge id=":1015092160_5" function="internal">
        <lane id=":1015092160_5_0" index="0" allow="pedestrian delivery bicycle" speed="3.65" length="4.67" shape="327.84,426.58 326.86,427.64 326.01,427.92 325.28,427.40 324.67,426.09"/>
    </edge>
    <edge id=":1015092160_6" function="internal">
        <lane id=":1015092160_6_0" index="0" allow="pedestrian delivery bicycle" speed="5.56" length="7.37" shape="321.43,432.37 322.53,431.70 323.43,430.43 324.15,428.56 324.67,426.09"/>
    </edge>
    <edge id=":1015092160_7" function="internal">
        <lane id=":1015092160_7_0" index="0" allow="pedestrian delivery bicycle" speed="5.56" length="10.11" shape="321.43,432.37 331.09,429.39"/>
    </edge>
    <edge id=":1015092160_8" function="internal">
        <lane id=":1015092160_8_0" index="0" allow="pedestrian delivery bicycle" speed="3.65" length="4.67" shape="321.43,432.37 322.81,432.78 323.42,433.43 323.28,434.31 322.37,435.43"/>
    </edge>
    <edge id=":1015092160_w0" function="walkingarea">
        <lane id=":1015092160_w0_0" index="0" allow="pedestrian" speed="1.00" length="7.68" width="3.20" shape="332.50,433.98 331.56,430.92 331.56,430.92 330.62,427.86 329.42,426.82 326.25,426.34 326.25,426.34 323.09,425.85 320.96,430.84 321.90,433.90 321.90,433.90 322.84,436.96"/>
    </edge>
    <edge id=":1015092162_0" function="internal">
        <lane id=":1015092162_0_0" index="0" allow="pedestrian delivery bicycle" speed="5.56" length="9.69" shape="497.85,472.78 488.24,471.50"/>
    </edge>
    <edge id=":1015092162_1" function="internal">
        <lane id=":1015092162_1_0" index="0" allow="pedestrian delivery bicycle" speed="5.56" length="8.69" shape="497.85,472.78 494.93,472.11 493.12,471.03 492.42,469.54 492.82,467.64"/>
    </edge>
    <edge id=":1015092162_2" function="internal">
        <lane id=":1015092162_2_0" index="0" allow="pedestrian delivery bicycle" speed="5.56" length="8.47" shape="495.74,468.97 494.70,470.37 493.10,471.27 490.95,471.64 488.24,471.50"/>
    </edge>
    <edge id=":1015092162_3" function="internal">
        <lane id=":1015092162_3_0" index="0" allow="pedestrian delivery bicycle" speed="3.65" length="4.67" shape="495.74,468.97 494.51,469.73 493.62,469.76 493.05,469.06 492.82,467.64"/>
    </edge>
    <edge id=":1015092162_w0" function="walkingarea">
        <lane id=":1015092162_w0_0" index="0" allow="pedestrian" speed="1.00" length="6.39" width="3.20" shape="497.64,474.37 498.06,471.19 497.19,469.63 494.28,468.30 494.28,468.30 491.37,466.98 488.45,469.91 488.03,473.08"/>
    </edge>
    <edge id=":1015092164_0" function="internal">
        <lane id=":1015092164_0_0" index="0" allow="pedestrian delivery bicycle" speed="5.04" length="5.00" shape="627.05,437.91 626.66,439.23 626.79,440.35 627.43,441.28 628.59,442.02"/>
    </edge>
    <edge id=":1015092164_1" function="internal">
        <lane id=":1015092164_1_0" index="0" allow="pedestrian delivery bicycle" speed="5.56" length="6.29" shape="627.05,437.91 624.40,443.62"/>
    </edge>
    <edge id=":1015092164_2" function="internal">
        <lane id=":1015092164_2_0" index="0" allow="pedestrian delivery bicycle" speed="3.65" length="4.67" shape="627.05,437.91 625.82,438.68 624.93,438.71 624.37,438.01 624.13,436.59"/>
    </edge>
    <edge id=":1015092164_3" function="internal">
        <lane id=":1015092164_3_0" index="0" allow="pedestrian delivery bicycle" speed="5.06" length="5.03" shape="620.00,438.13 621.33,438.52 622.46,438.39 623.39,437.75 624.13,436.59"/>
    </edge>
    <edge id=":1015092164_4" function="internal">
        <lane id=":1015092164_4_0" index="0" allow="pedestrian delivery bicycle" speed="5.56" length="9.43" shape="620.00,438.13 628.59,442.02"/>
    </edge>
    <edge id=":1015092164_5" function="internal">
        <lane id=":1015092164_5_0" index="0" allow="pedestrian delivery bicycle" speed="5.56" length="7.81" shape="620.00,438.13 622.44,439.45 623.98,440.81 624.64,442.19 624.40,443.62"/>
    </edge>
    <edge id=":1015092164_6" function="internal">
        <lane id=":1015092164_6_0" index="0" allow="pedestrian delivery bicycle" speed="5.56" length="6.24" shape="621.51,442.25 624.13,436.59"/>
    </edge>
    <edge id=":1015092164_7" function="internal">
        <lane id=":1015092164_7_0" index="0" allow="pedestrian delivery bicycle" speed="5.56" length="7.81" shape="621.51,442.25 622.45,441.17 623.95,440.78 625.99,441.06 628.59,442.02"/>
    </edge>
    <edge id=":1015092164_8" function="internal">