<?xml version="1.0" encoding="UTF-8"?>

<!-- generated on Thu Apr 16 18:26:09 2020 by Eclipse SUMO netconvert Version v1_5_0+0340-c5c5ce5a4d
<configuration xmlns:xsi="http://www.w3.org/2001/XMLSchema-instance" xsi:noNamespaceSchemaLocation="http://sumo.dlr.de/xsd/netconvertConfiguration.xsd">

    <input>
        <osm-files value="./data/map.osm"/>
    </input>

    <output>
        <output-file value="./scenario/map.net.xml"/>
        <output.street-names value="true"/>
    </output>

    <projection>
        <proj.utm value="true"/>
    </projection>

    <processing>
        <lefthand value="true"/>
    </processing>

    <report>
        <aggregate-warnings value="5"/>
    </report>

</configuration>
-->

<net version="1.6" junctionCornerDetail="5" lefthand="true" limitTurnSpeed="5.50" xmlns:xsi="http://www.w3.org/2001/XMLSchema-instance" xsi:noNamespaceSchemaLocation="http://sumo.dlr.de/xsd/net_file.xsd">

    <location netOffset="-345334.99,-4829121.96" convBoundary="0.00,-0.00,2271.51,1723.31" origBoundary="7.082431,43.599346,7.111786,43.617883" projParameter="+proj=utm +zone=32 +ellps=WGS84 +datum=WGS84 +units=m +no_defs"/>

    <type id="highway.bridleway" priority="1" numLanes="1" speed="2.78" allow="pedestrian" oneway="1" width="2.00"/>
    <type id="highway.bus_guideway" priority="1" numLanes="1" speed="27.78" allow="bus" oneway="1"/>
    <type id="highway.cycleway" priority="1" numLanes="1" speed="8.33" allow="bicycle" oneway="0" width="1.00"/>
    <type id="highway.footway" priority="1" numLanes="1" speed="2.78" allow="pedestrian" oneway="1" width="2.00"/>
    <type id="highway.ford" priority="1" numLanes="1" speed="2.78" allow="army" oneway="0"/>
    <type id="highway.living_street" priority="2" numLanes="1" speed="2.78" disallow="tram rail_urban rail rail_electric rail_fast ship" oneway="0"/>
    <type id="highway.motorway" priority="14" numLanes="2" speed="39.44" allow="private emergency authority army vip passenger hov taxi bus coach delivery truck trailer motorcycle evehicle custom1 custom2" oneway="1"/>
    <type id="highway.motorway_link" priority="9" numLanes="1" speed="22.22" allow="private emergency authority army vip passenger hov taxi bus coach delivery truck trailer motorcycle evehicle custom1 custom2" oneway="1"/>
    <type id="highway.path" priority="1" numLanes="1" speed="2.78" allow="pedestrian bicycle" oneway="1" width="2.00"/>
    <type id="highway.pedestrian" priority="1" numLanes="1" speed="2.78" allow="pedestrian" oneway="1" width="2.00"/>
    <type id="highway.primary" priority="12" numLanes="2" speed="27.78" disallow="tram rail_urban rail rail_electric rail_fast ship" oneway="0"/>
    <type id="highway.primary_link" priority="7" numLanes="1" speed="22.22" disallow="tram rail_urban rail rail_electric rail_fast ship" oneway="0"/>
    <type id="highway.raceway" priority="15" numLanes="2" speed="83.33" allow="vip" oneway="0"/>
    <type id="highway.residential" priority="3" numLanes="1" speed="13.89" disallow="tram rail_urban rail rail_electric rail_fast ship" oneway="0"/>
    <type id="highway.secondary" priority="11" numLanes="1" speed="27.78" disallow="tram rail_urban rail rail_electric rail_fast ship" oneway="0"/>
    <type id="highway.secondary_link" priority="6" numLanes="1" speed="22.22" disallow="tram rail_urban rail rail_electric rail_fast ship" oneway="0"/>
    <type id="highway.service" priority="1" numLanes="1" speed="5.56" allow="pedestrian delivery bicycle" oneway="0"/>
    <type id="highway.stairs" priority="1" numLanes="1" speed="1.39" allow="pedestrian" oneway="1" width="2.00"/>
    <type id="highway.step" priority="1" numLanes="1" speed="1.39" allow="pedestrian" oneway="1" width="2.00"/>
    <type id="highway.steps" priority="1" numLanes="1" speed="1.39" allow="pedestrian" oneway="1" width="2.00"/>
    <type id="highway.tertiary" priority="10" numLanes="1" speed="22.22" disallow="tram rail_urban rail rail_electric rail_fast ship" oneway="0"/>
    <type id="highway.tertiary_link" priority="5" numLanes="1" speed="22.22" disallow="tram rail_urban rail rail_electric rail_fast ship" oneway="0"/>
    <type id="highway.track" priority="1" numLanes="1" speed="5.56" disallow="tram rail_urban rail rail_electric rail_fast ship" oneway="0"/>
    <type id="highway.trunk" priority="13" numLanes="2" speed="27.78" disallow="pedestrian bicycle tram rail_urban rail rail_electric rail_fast ship" oneway="0"/>
    <type id="highway.trunk_link" priority="8" numLanes="1" speed="22.22" disallow="pedestrian bicycle tram rail_urban rail rail_electric rail_fast ship" oneway="0"/>
    <type id="highway.unclassified" priority="4" numLanes="1" speed="13.89" disallow="tram rail_urban rail rail_electric rail_fast ship" oneway="0"/>
    <type id="highway.unsurfaced" priority="1" numLanes="1" speed="8.33" disallow="tram rail_urban rail rail_electric rail_fast ship" oneway="0"/>
    <type id="railway.highspeed" priority="21" numLanes="1" speed="69.44" allow="rail_fast" oneway="1"/>
    <type id="railway.light_rail" priority="19" numLanes="1" speed="27.78" allow="rail_urban" oneway="1"/>
    <type id="railway.preserved" priority="16" numLanes="1" speed="27.78" allow="rail" oneway="1"/>
    <type id="railway.rail" priority="20" numLanes="1" speed="44.44" allow="rail" oneway="1"/>
    <type id="railway.subway" priority="18" numLanes="1" speed="27.78" allow="rail_urban" oneway="1"/>
    <type id="railway.tram" priority="17" numLanes="1" speed="13.89" allow="tram" oneway="1"/>

    <edge id=":1015092122_0" function="internal">
        <lane id=":1015092122_0_0" index="0" allow="pedestrian delivery bicycle" speed="4.92" length="5.15" shape="218.96,496.80 218.54,498.17 217.79,499.03 216.70,499.37 215.28,499.18"/>
    </edge>
    <edge id=":1015092122_1" function="internal">
        <lane id=":1015092122_1_0" index="0" allow="pedestrian delivery bicycle" speed="3.65" length="4.67" shape="218.96,496.80 219.57,498.10 220.30,498.62 221.15,498.34 222.12,497.27"/>
    </edge>
    <edge id=":1015092122_2" function="internal">
        <lane id=":1015092122_2_0" index="0" allow="pedestrian delivery bicycle" speed="5.47" length="5.52" shape="224.38,501.71 223.19,501.14 222.41,500.21 222.06,498.92 222.12,497.27"/>
    </edge>
    <edge id=":1015092122_3" function="internal">
        <lane id=":1015092122_3_0" index="0" allow="pedestrian delivery bicycle" speed="5.56" length="9.45" shape="224.38,501.71 215.28,499.18"/>
    </edge>
    <edge id=":1015092123_0" function="internal">
        <lane id=":1015092123_0_0" index="0" allow="pedestrian delivery bicycle" speed="5.56" length="6.26" shape="570.81,412.50 568.22,418.20"/>
    </edge>
    <edge id=":1015092123_1" function="internal">
        <lane id=":1015092123_1_0" index="0" allow="pedestrian delivery bicycle" speed="5.56" length="7.73" shape="570.81,412.50 570.64,413.89 571.33,415.25 572.89,416.59 575.31,417.89"/>
    </edge>
    <edge id=":1015092123_2" function="internal">
        <lane id=":1015092123_2_0" index="0" allow="pedestrian delivery bicycle" speed="3.65" length="4.67" shape="570.81,412.50 571.07,413.92 571.64,414.60 572.54,414.55 573.75,413.77"/>
    </edge>
    <edge id=":1015092123_3" function="internal">
        <lane id=":1015092123_3_0" index="0" allow="pedestrian delivery bicycle" speed="5.12" length="5.13" shape="571.12,419.57 571.90,418.36 572.86,417.68 574.00,417.52 575.31,417.89"/>
    </edge>
    <edge id=":1015092123_4" function="internal">
        <lane id=":1015092123_4_0" index="0" allow="pedestrian delivery bicycle" speed="5.56" length="6.37" shape="571.12,419.57 573.75,413.77"/>
    </edge>
    <edge id=":1015092123_5" function="internal">
        <lane id=":1015092123_5_0" index="0" allow="pedestrian delivery bicycle" speed="3.65" length="4.67" shape="571.12,419.57 570.91,418.14 570.36,417.44 569.46,417.46 568.22,418.20"/>
    </edge>
    <edge id=":1015092123_6" function="internal">
        <lane id=":1015092123_6_0" index="0" allow="pedestrian delivery bicycle" speed="5.00" length="5.05" shape="566.67,414.10 567.86,414.82 568.51,415.74 568.64,416.87 568.22,418.20"/>
    </edge>
    <edge id=":1015092123_7" function="internal">
        <lane id=":1015092123_7_0" index="0" allow="pedestrian delivery bicycle" speed="5.56" length="9.44" shape="566.67,414.10 575.31,417.89"/>
    </edge>
    <edge id=":1015092123_8" function="internal">
        <lane id=":1015092123_8_0" index="0" allow="pedestrian delivery bicycle" speed="5.56" length="7.81" shape="566.67,414.10 569.31,415.01 571.37,415.26 572.85,414.85 573.75,413.77"/>
    </edge>
    <edge id=":1015092124_0" function="internal">
        <lane id=":1015092124_0_0" index="0" allow="pedestrian delivery bicycle" speed="5.56" length="13.75" shape="664.44,510.41 662.22,507.63 660.12,505.04 657.86,502.62 655.17,500.32"/>
    </edge>
    <edge id=":1015092124_1" function="internal">
        <lane id=":1015092124_1_0" index="0" allow="pedestrian delivery bicycle" speed="5.56" length="14.61" shape="664.44,510.41 661.67,508.10 658.93,507.92 656.21,509.88 653.53,513.97"/>
    </edge>
    <edge id=":1015092124_2" function="internal">
        <lane id=":1015092124_2_0" index="0" allow="pedestrian delivery bicycle" speed="3.85" length="4.67" shape="664.44,510.41 663.07,509.99 662.19,510.19 661.83,511.00 661.97,512.44"/>
    </edge>
    <edge id=":1015092124_3" function="internal">
        <lane id=":1015092124_3_0" index="0" allow="pedestrian delivery bicycle" speed="4.93" length="7.67" shape="657.24,513.75 658.77,511.29 660.06,510.26 661.13,510.64 661.97,512.44"/>
    </edge>
    <edge id=":1015092124_4" function="internal">
        <lane id=":1015092124_4_0" index="0" allow="pedestrian delivery bicycle" speed="5.56" length="14.98" shape="657.24,513.75 658.78,509.70 658.94,506.11 657.74,502.98 655.17,500.32"/>
    </edge>
    <edge id=":1015092124_5" function="internal">
        <lane id=":1015092124_5_0" index="0" allow="pedestrian delivery bicycle" speed="3.85" length="5.44" shape="657.24,513.75 656.23,512.41 655.27,512.00 654.37,512.52 653.53,513.97"/>
    </edge>
    <edge id=":1015092124_6" function="internal">
        <lane id=":1015092124_6_0" index="0" allow="pedestrian delivery bicycle" speed="5.56" length="12.10" shape="653.25,502.89 654.90,504.79 655.49,507.28 655.03,510.34 653.53,513.97"/>
    </edge>
    <edge id=":1015092124_7" function="internal">
        <lane id=":1015092124_7_0" index="0" allow="pedestrian delivery bicycle" speed="5.56" length="13.21" shape="653.25,502.89 656.11,504.97 658.60,506.98 660.59,509.34 661.97,512.44"/>
    </edge>
    <edge id=":1015092124_8" function="internal">
        <lane id=":1015092124_8_0" index="0" allow="pedestrian delivery bicycle" speed="3.65" length="4.67" shape="653.25,502.89 654.69,502.96 655.49,502.56 655.65,501.68 655.17,500.32"/>
    </edge>
    <edge id=":1015092125_0" function="internal">
        <lane id=":1015092125_0_0" index="0" allow="pedestrian delivery bicycle" speed="3.65" length="4.67" shape="281.29,422.41 280.67,421.11 279.94,420.60 279.09,420.88 278.12,421.95"/>
    </edge>
    <edge id=":1015092126_0" function="internal">
        <lane id=":1015092126_0_0" index="0" allow="pedestrian delivery bicycle" speed="5.17" length="5.15" shape="460.58,460.33 459.79,461.55 458.83,462.25 457.70,462.44 456.38,462.10"/>
    </edge>
    <edge id=":1015092126_1" function="internal">
        <lane id=":1015092126_1_0" index="0" allow="pedestrian delivery bicycle" speed="3.65" length="4.67" shape="460.58,460.33 460.79,461.75 461.35,462.46 462.24,462.43 463.48,461.69"/>
    </edge>
    <edge id=":1015092126_2" function="internal">
        <lane id=":1015092126_2_0" index="0" allow="pedestrian delivery bicycle" speed="5.00" length="5.04" shape="465.03,465.79 463.85,465.07 463.19,464.14 463.07,463.02 463.48,461.69"/>
    </edge>
    <edge id=":1015092126_3" function="internal">
        <lane id=":1015092126_3_0" index="0" allow="pedestrian delivery bicycle" speed="5.56" length="9.40" shape="465.03,465.79 456.38,462.10"/>
    </edge>
    <edge id=":1015092131_0" function="internal">
        <lane id=":1015092131_0_0" index="0" allow="pedestrian delivery bicycle" speed="3.65" length="4.67" shape="634.52,390.67 634.35,389.24 633.82,388.52 632.92,388.52 631.67,389.23"/>
    </edge>
    <edge id=":1015092136_0" function="internal">
        <lane id=":1015092136_0_0" index="0" allow="pedestrian delivery bicycle" speed="3.65" length="4.67" shape="605.21,379.81 605.01,378.39 604.46,377.68 603.56,377.69 602.32,378.43"/>
    </edge>
    <edge id=":1015092138_0" function="internal">
        <lane id=":1015092138_0_0" index="0" allow="pedestrian delivery bicycle" speed="5.56" length="6.24" shape="638.36,443.03 635.72,448.69"/>
    </edge>
    <edge id=":1015092138_1" function="internal">
        <lane id=":1015092138_1_0" index="0" allow="pedestrian delivery bicycle" speed="5.56" length="7.44" shape="638.36,443.03 638.13,444.42 638.74,445.76 640.19,447.06 642.47,448.31"/>
    </edge>
    <edge id=":1015092138_2" function="internal">
        <lane id=":1015092138_2_0" index="0" allow="pedestrian delivery bicycle" speed="3.65" length="4.67" shape="638.36,443.03 638.59,444.45 639.15,445.15 640.04,445.11 641.27,444.36"/>
    </edge>
    <edge id=":1015092138_3" function="internal">
        <lane id=":1015092138_3_0" index="0" allow="pedestrian delivery bicycle" speed="4.99" length="4.82" shape="638.60,450.06 639.36,448.87 640.26,448.18 641.30,448.00 642.47,448.31"/>
    </edge>
    <edge id=":1015092138_4" function="internal">
        <lane id=":1015092138_4_0" index="0" allow="pedestrian delivery bicycle" speed="5.56" length="6.30" shape="638.60,450.06 641.27,444.36"/>
    </edge>
    <edge id=":1015092138_5" function="internal">
        <lane id=":1015092138_5_0" index="0" allow="pedestrian delivery bicycle" speed="3.65" length="4.67" shape="638.60,450.06 638.40,448.64 637.85,447.93 636.95,447.95 635.72,448.69"/>
    </edge>
    <edge id=":1015092138_6" function="internal">
        <lane id=":1015092138_6_0" index="0" allow="pedestrian delivery bicycle" speed="5.02" length="5.02" shape="634.21,444.57 635.37,445.31 636.01,446.24 636.13,447.37 635.72,448.69"/>
    </edge>
    <edge id=":1015092138_7" function="internal">
        <lane id=":1015092138_7_0" index="0" allow="pedestrian delivery bicycle" speed="5.56" length="9.07" shape="634.21,444.57 642.47,448.31"/>
    </edge>
    <edge id=":1015092138_8" function="internal">
        <lane id=":1015092138_8_0" index="0" allow="pedestrian delivery bicycle" speed="5.56" length="7.79" shape="634.21,444.57 636.81,445.53 638.86,445.82 640.34,445.43 641.27,444.36"/>
    </edge>
    <edge id=":1015092140_0" function="internal">
        <lane id=":1015092140_0_0" index="0" allow="pedestrian delivery bicycle" speed="5.56" length="8.94" shape="440.40,435.69 442.01,432.90 443.49,430.85 444.83,429.54 446.03,428.99"/>
    </edge>
    <edge id=":1015092140_1" function="internal">
        <lane id=":1015092140_1_0" index="0" allow="pedestrian delivery bicycle" speed="3.65" length="4.67" shape="440.40,435.69 440.26,434.26 439.74,433.53 438.84,433.51 437.58,434.19"/>
    </edge>
    <edge id=":1015092140_2" function="internal">
        <lane id=":1015092140_2_0" index="0" allow="pedestrian delivery bicycle" speed="4.66" length="6.16" shape="435.12,430.78 437.03,430.71 438.07,431.25 438.25,432.41 437.58,434.19"/>
    </edge>
    <edge id=":1015092140_3" function="internal">
        <lane id=":1015092140_3_0" index="0" allow="pedestrian delivery bicycle" speed="5.56" length="11.05" shape="435.12,430.78 446.03,428.99"/>
    </edge>
    <edge id=":1015092142_0" function="internal">
        <lane id=":1015092142_0_0" index="0" allow="pedestrian delivery bicycle" speed="3.65" length="4.67" shape="619.90,383.54 619.68,382.11 619.13,381.41 618.23,381.44 617.00,382.19"/>
    </edge>
    <edge id=":1015092143_0" function="internal">
        <lane id=":1015092143_0_0" index="0" allow="pedestrian delivery bicycle" speed="5.02" length="5.02" shape="416.39,440.42 415.65,441.59 414.72,442.24 413.60,442.36 412.28,441.96"/>
    </edge>
    <edge id=":1015092143_1" function="internal">
        <lane id=":1015092143_1_0" index="0" allow="pedestrian delivery bicycle" speed="3.65" length="4.67" shape="416.39,440.42 416.63,441.85 417.20,442.54 418.09,442.50 419.31,441.73"/>
    </edge>
    <edge id=":1015092143_2" function="internal">
        <lane id=":1015092143_2_0" index="0" allow="pedestrian delivery bicycle" speed="5.10" length="5.07" shape="420.80,445.93 419.66,445.18 419.04,444.23 418.92,443.08 419.31,441.73"/>
    </edge>
    <edge id=":1015092143_3" function="internal">
        <lane id=":1015092143_3_0" index="0" allow="pedestrian delivery bicycle" speed="5.56" length="9.40" shape="420.80,445.93 412.28,441.96"/>
    </edge>
    <edge id=":1015092145_0" function="internal">
        <lane id=":1015092145_0_0" index="0" allow="pedestrian delivery bicycle" speed="4.67" length="6.59" shape="649.91,463.16 651.05,461.40 652.11,460.85 653.10,461.52 654.01,463.42"/>
    </edge>
    <edge id=":1015092145_1" function="internal">
        <lane id=":1015092145_1_0" index="0" allow="pedestrian delivery bicycle" speed="3.65" length="4.67" shape="649.91,463.16 649.73,461.73 649.19,461.02 648.29,461.02 647.04,461.74"/>
    </edge>
    <edge id=":1015092145_2" function="internal">
        <lane id=":1015092145_2_0" index="0" allow="pedestrian delivery bicycle" speed="5.56" length="9.00" shape="648.44,453.25 649.06,454.48 649.03,456.30 648.36,458.72 647.04,461.74"/>
    </edge>
    <edge id=":1015092145_3" function="internal">
        <lane id=":1015092145_3_0" index="0" allow="pedestrian delivery bicycle" speed="5.56" length="11.74" shape="648.44,453.25 650.58,455.66 651.94,457.88 652.95,460.33 654.01,463.42"/>
    </edge>
    <edge id=":1015092149_0" function="internal">
        <lane id=":1015092149_0_0" index="0" allow="pedestrian delivery bicycle" speed="5.56" length="5.09" shape="250.10,429.47 255.13,430.25"/>
    </edge>
    <edge id=":1015092149_1" function="internal">
        <lane id=":1015092149_1_0" index="0" allow="pedestrian delivery bicycle" speed="5.56" length="5.59" shape="251.89,426.17 252.32,427.80 253.01,429.03 253.94,429.84 255.13,430.25"/>
    </edge>
    <edge id=":1015092153_0" function="internal">
        <lane id=":1015092153_0_0" index="0" allow="pedestrian delivery bicycle" speed="4.67" length="5.87" shape="534.98,488.27 534.02,489.76 532.99,490.30 531.89,489.91 530.73,488.58"/>
    </edge>
    <edge id=":1015092153_1" function="internal">
        <lane id=":1015092153_1_0" index="0" allow="pedestrian delivery bicycle" speed="3.65" length="4.67" shape="534.98,488.27 535.19,489.70 535.74,490.40 536.64,490.39 537.87,489.64"/>
    </edge>
    <edge id=":1015092153_2" function="internal">
        <lane id=":1015092153_2_0" index="0" allow="pedestrian delivery bicycle" speed="5.56" length="8.18" shape="536.51,497.27 535.91,496.46 535.94,494.92 536.59,492.65 537.87,489.64"/>
    </edge>
    <edge id=":1015092153_3" function="internal">
        <lane id=":1015092153_3_0" index="0" allow="pedestrian delivery bicycle" speed="5.56" length="10.73" shape="536.51,497.27 534.10,495.57 532.97,493.67 532.17,491.39 530.73,488.58"/>
    </edge>
    <edge id=":1015092154_0" function="internal">
        <lane id=":1015092154_0_0" index="0" allow="pedestrian delivery bicycle" speed="5.56" length="7.81" shape="293.04,432.59 293.24,434.03 294.27,435.16 296.15,435.99 298.87,436.53"/>
    </edge>
    <edge id=":1015092154_1" function="internal">
        <lane id=":1015092154_1_0" index="0" allow="pedestrian delivery bicycle" speed="3.65" length="4.67" shape="293.04,432.59 293.66,433.90 294.40,434.40 295.25,434.12 296.21,433.05"/>
    </edge>
    <edge id=":1015092154_2" function="internal">
        <lane id=":1015092154_2_0" index="0" allow="pedestrian delivery bicycle" speed="5.56" length="9.95" shape="289.00,435.31 298.87,436.53"/>
    </edge>
    <edge id=":1015092154_3" function="internal">
        <lane id=":1015092154_3_0" index="0" allow="pedestrian delivery bicycle" speed="5.56" length="8.28" shape="289.00,435.31 291.99,435.48 294.19,435.16 295.59,434.35 296.21,433.05"/>
    </edge>
    <edge id=":1015092156_0" function="internal">
        <lane id=":1015092156_0_0" index="0" allow="pedestrian delivery bicycle" speed="3.65" length="4.67" shape="583.69,390.79 583.43,389.37 582.85,388.68 581.96,388.73 580.75,389.52"/>
    </edge>
    <edge id=":1015092158_0" function="internal">
        <lane id=":1015092158_0_0" index="0" allow="pedestrian delivery bicycle" speed="4.93" length="5.13" shape="249.05,505.16 248.62,506.52 247.86,507.37 246.77,507.70 245.35,507.52"/>
    </edge>
    <edge id=":1015092158_1" function="internal">
        <lane id=":1015092158_1_0" index="0" allow="pedestrian delivery bicycle" speed="3.65" length="4.67" shape="249.05,505.16 249.64,506.48 250.37,507.00 251.22,506.74 252.21,505.69"/>
    </edge>
    <edge id=":1015092158_2" function="internal">
        <lane id=":1015092158_2_0" index="0" allow="pedestrian delivery bicycle" speed="5.41" length="5.45" shape="254.45,510.05 253.24,509.48 252.47,508.56 252.13,507.30 252.21,505.69"/>
    </edge>
    <edge id=":1015092158_3" function="internal">
        <lane id=":1015092158_3_0" index="0" allow="pedestrian delivery bicycle" speed="5.56" length="9.44" shape="254.45,510.05 245.35,507.52"/>
    </edge>
    <edge id=":1015092160_0" function="internal">
        <lane id=":1015092160_0_0" index="0" allow="pedestrian delivery bicycle" speed="5.56" length="7.37" shape="324.67,426.09 324.15,428.56 323.43,430.43 322.53,431.70 321.43,432.37"/>
    </edge>
    <edge id=":1015092160_1" function="internal">
        <lane id=":1015092160_1_0" index="0" allow="pedestrian delivery bicycle" speed="5.56" length="12.83" shape="324.67,426.09 324.61,429.89 325.81,432.21 328.29,433.07 332.03,432.45"/>
    </edge>
    <edge id=":1015092160_2" function="internal">
        <lane id=":1015092160_2_0" index="0" allow="pedestrian delivery bicycle" speed="3.65" length="4.67" shape="324.67,426.09 325.28,427.40 326.01,427.92 326.86,427.64 327.84,426.58"/>
    </edge>
    <edge id=":1015092160_3" function="internal">
        <lane id=":1015092160_3_0" index="0" allow="pedestrian delivery bicycle" speed="4.70" length="5.68" shape="331.09,429.39 329.44,429.67 328.34,429.29 327.81,428.26 327.84,426.58"/>
    </edge>
    <edge id=":1015092160_4" function="internal">
        <lane id=":1015092160_4_0" index="0" allow="pedestrian delivery bicycle" speed="5.56" length="10.11" shape="331.09,429.39 321.43,432.37"/>
    </edge>
    <edge id=":1015092160_5" function="internal">
        <lane id=":1015092160_5_0" index="0" allow="pedestrian delivery bicycle" speed="3.65" length="4.67" shape="331.09,429.39 330.18,430.51 330.03,431.39 330.65,432.04 332.03,432.45"/>
    </edge>
    <edge id=":1015092160_6" function="internal">
        <lane id=":1015092160_6_0" index="0" allow="pedestrian delivery bicycle" speed="5.56" length="10.12" shape="322.37,435.43 332.03,432.45"/>
    </edge>
    <edge id=":1015092160_7" function="internal">
        <lane id=":1015092160_7_0" index="0" allow="pedestrian delivery bicycle" speed="5.56" length="10.94" shape="322.37,435.43 324.32,434.38 325.89,432.55 327.06,429.95 327.84,426.58"/>
    </edge>
    <edge id=":1015092160_8" function="internal">
        <lane id=":1015092160_8_0" index="0" allow="pedestrian delivery bicycle" speed="3.65" length="4.67" shape="322.37,435.43 323.28,434.31 323.42,433.43 322.81,432.78 321.43,432.37"/>
    </edge>
    <edge id=":1015092162_0" function="internal">
        <lane id=":1015092162_0_0" index="0" allow="pedestrian delivery bicycle" speed="5.56" length="6.41" shape="492.82,467.64 491.82,469.46 490.72,470.71 489.53,471.39 488.24,471.50"/>
    </edge>
    <edge id=":1015092162_1" function="internal">
        <lane id=":1015092162_1_0" index="0" allow="pedestrian delivery bicycle" speed="3.65" length="4.67" shape="492.82,467.64 493.05,469.06 493.62,469.76 494.51,469.73 495.74,468.97"/>
    </edge>
    <edge id=":1015092162_2" function="internal">
        <lane id=":1015092162_2_0" index="0" allow="pedestrian delivery bicycle" speed="4.79" length="5.40" shape="497.85,472.78 496.35,472.36 495.51,471.59 495.30,470.45 495.74,468.97"/>
    </edge>
    <edge id=":1015092162_3" function="internal">
        <lane id=":1015092162_3_0" index="0" allow="pedestrian delivery bicycle" speed="5.56" length="9.69" shape="497.85,472.78 488.24,471.50"/>
    </edge>
    <edge id=":1015092164_0" function="internal">
        <lane id=":1015092164_0_0" index="0" allow="pedestrian delivery bicycle" speed="5.56" length="6.24" shape="624.13,436.59 621.51,442.25"/>
    </edge>
    <edge id=":1015092164_1" function="internal">
        <lane id=":1015092164_1_0" index="0" allow="pedestrian delivery bicycle" speed="5.56" length="7.76" shape="624.13,436.59 623.93,437.99 624.61,439.36 626.16,440.70 628.59,442.02"/>
    </edge>
    <edge id=":1015092164_2" function="internal">
        <lane id=":1015092164_2_0" index="0" allow="pedestrian delivery bicycle" speed="3.65" length="4.67" shape="624.13,436.59 624.37,438.01 624.93,438.71 625.82,438.68 627.05,437.91"/>
    </edge>
    <edge id=":1015092164_3" function="internal">
        <lane id=":1015092164_3_0" index="0" allow="pedestrian delivery bicycle" speed="5.11" length="5.09" shape="624.40,443.62 625.17,442.44 626.13,441.78 627.27,441.64 628.59,442.02"/>
    </edge>
    <edge id=":1015092164_4" function="internal">
        <lane id=":1015092164_4_0" index="0" allow="pedestrian delivery bicycle" speed="5.56" length="6.29" shape="624.40,443.62 627.05,437.91"/>
    </edge>
    <edge id=":1015092164_5" function="internal">
        <lane id=":1015092164_5_0" index="0" allow="pedestrian delivery bicycle" speed="3.65" length="4.67" shape="624.40,443.62 624.19,442.19 623.64,441.49 622.74,441.50 621.51,442.25"/>
    </edge>
    <edge id=":1015092164_6" function="internal">
        <lane id=":1015092164_6_0" index="0" allow="pedestrian delivery bicycle" speed="5.02" length="5.02" shape="620.00,438.13 621.16,438.87 621.80,439.80 621.92,440.93 621.51,442.25"/>
    </edge>
    <edge id=":1015092164_7" function="internal">
        <lane id=":1015092164_7_0" index="0" allow="pedestrian delivery bicycle" speed="5.56" length="9.43" shape="620.00,438.13 628.59,442.02"/>
    </edge>
    <edge id=":1015092164_8" function="internal">
        <lane id=":1015092164_8_0" index="0" allow="pedestrian delivery bicycle" speed="5.56" length="7.79" shape="620.00,438.13 622.60,439.09 624.64,439.38 626.13,438.99 627.05,437.91"/>
    </edge>
    <edge id=":1015092170_0" function="internal">
        <lane id=":1015092170_0_0" index="0" allow="pedestrian delivery bicycle" speed="4.91" length="5.17" shape="234.93,501.20 234.53,502.59 233.78,503.45 232.70,503.79 231.26,503.61"/>
    </edge>
    <edge id=":1015092170_1" function="internal">
        <lane id=":1015092170_1_0" index="0" allow="pedestrian delivery bicycle" speed="3.65" length="4.67" shape="234.93,501.20 235.56,502.50 236.29,503.00 237.14,502.72 238.10,501.64"/>
    </edge>
    <edge id=":1015092170_2" function="internal">
        <lane id=":1015092170_2_0" index="0" allow="pedestrian delivery bicycle" speed="5.52" length="5.58" shape="240.38,506.14 239.19,505.57 238.41,504.63 238.05,503.32 238.10,501.64"/>
    </edge>
    <edge id=":1015092170_3" function="internal">
        <lane id=":1015092170_3_0" index="0" allow="pedestrian delivery bicycle" speed="5.56" length="9.46" shape="240.38,506.14 231.26,503.61"/>
    </edge>
    <edge id=":1015092171_0" function="internal">
        <lane id=":1015092171_0_0" index="0" allow="pedestrian delivery bicycle" speed="5.56" length="7.92" shape="647.59,493.25 644.29,500.45"/>
    </edge>
    <edge id=":1015092171_1" function="internal">
        <lane id=":1015092171_1_0" index="0" allow="pedestrian delivery bicycle" speed="5.56" length="6.76" shape="647.59,493.25 646.96,495.14 646.90,496.80 647.42,498.20 648.53,499.37"/>
    </edge>
    <edge id=":1015092171_2" function="internal">
        <lane id=":1015092171_2_0" index="0" allow="pedestrian delivery bicycle" speed="5.56" length="8.40" shape="650.44,496.80 648.81,496.09 647.23,496.47 645.73,497.92 644.29,500.45"/>
    </edge>
    <edge id=":1015092171_3" function="internal">
        <lane id=":1015092171_3_0" index="0" allow="pedestrian delivery bicycle" speed="3.65" length="4.67" shape="650.44,496.80 649.00,496.73 648.20,497.13 648.05,498.01 648.53,499.37"/>
    </edge>
    <edge id=":1015092172_0" function="internal">
        <lane id=":1015092172_0_0" index="0" allow="pedestrian delivery bicycle" speed="3.65" length="4.67" shape="266.00,424.71 265.46,423.37 264.76,422.81 263.89,423.04 262.86,424.05"/>
    </edge>
    <edge id=":1015092173_0" function="internal">
        <lane id=":1015092173_0_0" index="0" allow="pedestrian delivery bicycle" speed="5.56" length="9.52" shape="479.17,428.39 480.75,425.29 482.19,422.99 483.48,421.49 484.63,420.79"/>
    </edge>
    <edge id=":1015092173_1" function="internal">
        <lane id=":1015092173_1_0" index="0" allow="pedestrian delivery bicycle" speed="3.65" length="4.67" shape="479.17,428.39 478.96,426.96 478.41,426.26 477.52,426.28 476.28,427.03"/>
    </edge>
    <edge id=":1015092173_2" function="internal">
        <lane id=":1015092173_2_0" index="0" allow="pedestrian delivery bicycle" speed="4.66" length="6.35" shape="473.60,423.85 475.57,423.55 476.67,423.98 476.91,425.14 476.28,427.03"/>
    </edge>
    <edge id=":1015092173_3" function="internal">
        <lane id=":1015092173_3_0" index="0" allow="pedestrian delivery bicycle" speed="5.56" length="11.45" shape="473.60,423.85 484.63,420.79"/>
    </edge>
    <edge id=":1015092174_0" function="internal">