<?xml version="1.0" encoding="UTF-8"?>

<!-- generated on Thu Dec 19 10:55:03 2019 by SUMO netconvert Version 0.25.0
<?xml version="1.0" encoding="UTF-8"?>

<configuration xmlns:xsi="http://www.w3.org/2001/XMLSchema-instance" xsi:noNamespaceSchemaLocation="http://sumo.dlr.de/xsd/netconvertConfiguration.xsd">

    <input>
        <type-files value="/home/alex/Desktop/sumo/data/typemap/osmNetconvert.typ.xml"/>
        <osm-files value="./data/map.osm"/>
    </input>

    <output>
        <output-file value="./scenario/map.net.xml"/>
        <output.street-names value="true"/>
    </output>

    <projection>
        <proj.utm value="true"/>
    </projection>

    <processing>
        <lefthand value="true"/>
    </processing>

</configuration>
-->

<net version="0.25" lefthand="true" xmlns:xsi="http://www.w3.org/2001/XMLSchema-instance" xsi:noNamespaceSchemaLocation="http://sumo.dlr.de/xsd/net_file.xsd">

    <location netOffset="-345334.99,-4829121.96" convBoundary="0.00,-0.00,2271.51,1723.31" origBoundary="7.082431,43.599346,7.111786,43.617883" projParameter="+proj=utm +zone=32 +ellps=WGS84 +datum=WGS84 +units=m +no_defs"/>

    <type id="highway.bridleway" priority="1" numLanes="1" speed="2.78" allow="pedestrian" oneway="1" width="2.00"/>
    <type id="highway.bus_guideway" priority="1" numLanes="1" speed="27.78" allow="bus" oneway="1"/>
    <type id="highway.cycleway" priority="1" numLanes="1" speed="8.33" allow="bicycle" oneway="0" width="1.00"/>
    <type id="highway.footway" priority="1" numLanes="1" speed="2.78" allow="pedestrian" oneway="1" width="2.00"/>
    <type id="highway.ford" priority="1" numLanes="1" speed="2.78" allow="army" oneway="0"/>
    <type id="highway.living_street" priority="2" numLanes="1" speed="2.78" disallow="tram rail_urban rail rail_electric ship" oneway="0"/>
    <type id="highway.motorway" priority="14" numLanes="2" speed="39.44" allow="private emergency authority army vip passenger hov taxi bus coach delivery truck trailer motorcycle evehicle custom1 custom2" oneway="1"/>
    <type id="highway.motorway_link" priority="9" numLanes="1" speed="22.22" allow="private emergency authority army vip passenger hov taxi bus coach delivery truck trailer motorcycle evehicle custom1 custom2" oneway="1"/>
    <type id="highway.path" priority="1" numLanes="1" speed="2.78" allow="bicycle pedestrian" oneway="1" width="2.00"/>
    <type id="highway.pedestrian" priority="1" numLanes="1" speed="2.78" allow="pedestrian" oneway="1" width="2.00"/>
    <type id="highway.primary" priority="12" numLanes="2" speed="27.78" disallow="tram rail_urban rail rail_electric ship" oneway="0"/>
    <type id="highway.primary_link" priority="7" numLanes="1" speed="22.22" disallow="tram rail_urban rail rail_electric ship" oneway="0"/>
    <type id="highway.raceway" priority="15" numLanes="2" speed="83.33" allow="vip" oneway="0"/>
    <type id="highway.residential" priority="3" numLanes="1" speed="13.89" disallow="tram rail_urban rail rail_electric ship" oneway="0"/>
    <type id="highway.secondary" priority="11" numLanes="2" speed="27.78" disallow="tram rail_urban rail rail_electric ship" oneway="0"/>
    <type id="highway.secondary_link" priority="6" numLanes="1" speed="22.22" disallow="tram rail_urban rail rail_electric ship" oneway="0"/>
    <type id="highway.service" priority="1" numLanes="1" speed="5.56" allow="delivery bicycle pedestrian" oneway="0"/>
    <type id="highway.stairs" priority="1" numLanes="1" speed="1.39" allow="pedestrian" oneway="1" width="2.00"/>
    <type id="highway.step" priority="1" numLanes="1" speed="1.39" allow="pedestrian" oneway="1" width="2.00"/>
    <type id="highway.steps" priority="1" numLanes="1" speed="1.39" allow="pedestrian" oneway="1" width="2.00"/>
    <type id="highway.tertiary" priority="10" numLanes="1" speed="22.22" disallow="tram rail_urban rail rail_electric ship" oneway="0"/>
    <type id="highway.tertiary_link" priority="5" numLanes="1" speed="22.22" disallow="tram rail_urban rail rail_electric ship" oneway="0"/>
    <type id="highway.track" priority="1" numLanes="1" speed="5.56" disallow="tram rail_urban rail rail_electric ship" oneway="0"/>
    <type id="highway.trunk" priority="13" numLanes="2" speed="27.78" disallow="tram rail_urban rail rail_electric bicycle pedestrian ship" oneway="0"/>
    <type id="highway.trunk_link" priority="8" numLanes="1" speed="22.22" disallow="tram rail_urban rail rail_electric bicycle pedestrian ship" oneway="0"/>
    <type id="highway.unclassified" priority="4" numLanes="1" speed="13.89" disallow="tram rail_urban rail rail_electric ship" oneway="0"/>
    <type id="highway.unsurfaced" priority="1" numLanes="1" speed="8.33" disallow="tram rail_urban rail rail_electric ship" oneway="0"/>
    <type id="railway.highspeed" priority="21" numLanes="1" speed="69.44" allow="rail_electric" oneway="1"/>
    <type id="railway.light_rail" priority="19" numLanes="1" speed="27.78" allow="rail_urban" oneway="1"/>
    <type id="railway.preserved" priority="16" numLanes="1" speed="27.78" allow="rail" oneway="1"/>
    <type id="railway.rail" priority="20" numLanes="1" speed="44.44" allow="rail" oneway="1"/>
    <type id="railway.subway" priority="18" numLanes="1" speed="27.78" allow="rail_urban" oneway="1"/>
    <type id="railway.tram" priority="17" numLanes="1" speed="13.89" allow="tram" oneway="1"/>

    <edge id=":1015092122_0" function="internal">
        <lane id=":1015092122_0_0" index="0" allow="delivery bicycle pedestrian" speed="5.56" length="5.15" shape="218.91,496.78 218.49,498.16 217.74,499.02 216.65,499.35 215.23,499.17"/>
    </edge>
    <edge id=":1015092122_1" function="internal">
        <lane id=":1015092122_1_0" index="0" allow="delivery bicycle pedestrian" speed="5.56" length="4.82" shape="218.91,496.78 219.54,498.13 220.29,498.66 221.17,498.38 222.17,497.28"/>
    </edge>
    <edge id=":1015092122_2" function="internal">
        <lane id=":1015092122_2_0" index="0" allow="delivery bicycle pedestrian" speed="5.56" length="5.53" shape="224.43,501.72 223.24,501.15 222.46,500.22 222.11,498.93 222.17,497.28"/>
    </edge>
    <edge id=":1015092122_3" function="internal">
        <lane id=":1015092122_3_0" index="0" allow="delivery bicycle pedestrian" speed="5.56" length="9.55" shape="224.43,501.72 215.23,499.17"/>
    </edge>
    <edge id=":1015092123_0" function="internal">
        <lane id=":1015092123_0_0" index="0" allow="delivery bicycle pedestrian" speed="5.56" length="6.26" shape="570.76,412.48 568.18,418.18"/>
    </edge>
    <edge id=":1015092123_1" function="internal">
        <lane id=":1015092123_1_0" index="0" allow="delivery bicycle pedestrian" speed="5.56" length="7.82" shape="570.76,412.48 570.60,413.87 571.30,415.24 572.89,416.59 575.36,417.91"/>
    </edge>
    <edge id=":1015092123_2" function="internal">
        <lane id=":1015092123_2_0" index="0" allow="delivery bicycle pedestrian" speed="5.56" length="4.82" shape="570.76,412.48 571.03,413.94 571.62,414.65 572.54,414.60 573.79,413.79"/>
    </edge>
    <edge id=":1015092123_3" function="internal">
        <lane id=":1015092123_3_0" index="0" allow="delivery bicycle pedestrian" speed="5.56" length="5.13" shape="571.16,419.59 571.95,418.38 572.91,417.70 574.04,417.54 575.36,417.91"/>
    </edge>
    <edge id=":1015092123_4" function="internal">
        <lane id=":1015092123_4_0" index="0" allow="delivery bicycle pedestrian" speed="5.56" length="6.37" shape="571.16,419.59 573.79,413.79"/>
    </edge>
    <edge id=":1015092123_5" function="internal">
        <lane id=":1015092123_5_0" index="0" allow="delivery bicycle pedestrian" speed="5.56" length="4.82" shape="571.16,419.59 570.94,418.12 570.38,417.39 569.45,417.41 568.18,418.18"/>
    </edge>
    <edge id=":1015092123_6" function="internal">
        <lane id=":1015092123_6_0" index="0" allow="delivery bicycle pedestrian" speed="5.56" length="5.05" shape="566.62,414.08 567.81,414.80 568.47,415.72 568.59,416.85 568.18,418.18"/>
    </edge>
    <edge id=":1015092123_7" function="internal">
        <lane id=":1015092123_7_0" index="0" allow="delivery bicycle pedestrian" speed="5.56" length="9.54" shape="566.62,414.08 575.36,417.91"/>
    </edge>
    <edge id=":1015092123_8" function="internal">
        <lane id=":1015092123_8_0" index="0" allow="delivery bicycle pedestrian" speed="5.56" length="7.90" shape="566.62,414.08 569.30,415.01 571.39,415.27 572.89,414.87 573.79,413.79"/>
    </edge>
    <edge id=":1015092124_0" function="internal">
        <lane id=":1015092124_0_0" index="0" allow="delivery bicycle pedestrian" speed="5.56" length="13.85" shape="664.53,510.43 662.29,507.64 660.16,505.03 657.88,502.58 655.18,500.27"/>
    </edge>
    <edge id=":1015092124_1" function="internal">
        <lane id=":1015092124_1_0" index="0" allow="delivery bicycle pedestrian" speed="5.56" length="14.86" shape="664.53,510.43 661.71,508.08 658.92,507.91 656.15,509.90 653.42,514.07"/>
    </edge>
    <edge id=":1015092124_2" function="internal">
        <lane id=":1015092124_2_0" index="0" allow="delivery bicycle pedestrian" speed="5.56" length="4.82" shape="664.53,510.43 663.11,510.00 662.21,510.20 661.83,511.04 661.98,512.52"/>
    </edge>
    <edge id=":1015092124_3" function="internal">
        <lane id=":1015092124_3_0" index="0" allow="delivery bicycle pedestrian" speed="5.56" length="7.67" shape="657.25,513.84 658.78,511.38 660.07,510.34 661.14,510.72 661.98,512.52"/>
    </edge>
    <edge id=":1015092124_4" function="internal">
        <lane id=":1015092124_4_0" index="0" allow="delivery bicycle pedestrian" speed="5.56" length="15.13" shape="657.25,513.84 658.81,509.74 658.98,506.11 657.77,502.95 655.18,500.27"/>
    </edge>
    <edge id=":1015092124_5" function="internal">
        <lane id=":1015092124_5_0" index="0" allow="delivery bicycle pedestrian" speed="5.56" length="5.61" shape="657.25,513.84 656.21,512.46 655.22,512.04 654.29,512.58 653.42,514.07"/>
    </edge>
    <edge id=":1015092124_6" function="internal">
        <lane id=":1015092124_6_0" index="0" allow="delivery bicycle pedestrian" speed="5.56" length="12.17" shape="653.21,502.92 654.84,504.82 655.42,507.31 654.95,510.40 653.42,514.07"/>
    </edge>
    <edge id=":1015092124_7" function="internal">
        <lane id=":1015092124_7_0" index="0" allow="delivery bicycle pedestrian" speed="5.56" length="13.29" shape="653.21,502.92 656.07,505.00 658.58,507.04 660.59,509.41 661.98,512.52"/>
    </edge>
    <edge id=":1015092124_8" function="internal">
        <lane id=":1015092124_8_0" index="0" allow="delivery bicycle pedestrian" speed="5.56" length="4.82" shape="653.21,502.92 654.69,502.99 655.52,502.58 655.68,501.67 655.18,500.27"/>
    </edge>
    <edge id=":1015092125_0" function="internal">
        <lane id=":1015092125_0_0" index="0" allow="delivery bicycle pedestrian" speed="5.56" length="4.82" shape="281.34,422.42 280.70,421.08 279.94,420.55 279.07,420.84 278.07,421.94"/>
    </edge>
    <edge id=":1015092126_0" function="internal">
        <lane id=":1015092126_0_0" index="0" allow="delivery bicycle pedestrian" speed="5.56" length="5.15" shape="460.54,460.30 459.75,461.53 458.79,462.23 457.65,462.42 456.34,462.08"/>
    </edge>
    <edge id=":1015092126_1" function="internal">
        <lane id=":1015092126_1_0" index="0" allow="delivery bicycle pedestrian" speed="5.56" length="4.82" shape="460.54,460.30 460.75,461.77 461.33,462.50 462.25,462.48 463.52,461.71"/>
    </edge>
    <edge id=":1015092126_2" function="internal">
        <lane id=":1015092126_2_0" index="0" allow="delivery bicycle pedestrian" speed="5.56" length="5.04" shape="465.08,465.81 463.89,465.09 463.24,464.16 463.11,463.04 463.52,461.71"/>
    </edge>
    <edge id=":1015092126_3" function="internal">
        <lane id=":1015092126_3_0" index="0" allow="delivery bicycle pedestrian" speed="5.56" length="9.50" shape="465.08,465.81 456.34,462.08"/>
    </edge>
    <edge id=":1015092131_0" function="internal">
        <lane id=":1015092131_0_0" index="0" allow="delivery bicycle pedestrian" speed="5.56" length="4.82" shape="634.57,390.69 634.39,389.22 633.84,388.48 632.92,388.47 631.62,389.20"/>
    </edge>
    <edge id=":1015092136_0" function="internal">
        <lane id=":1015092136_0_0" index="0" allow="delivery bicycle pedestrian" speed="5.56" length="4.82" shape="605.25,379.84 605.05,378.36 604.48,377.63 603.56,377.65 602.28,378.41"/>
    </edge>
    <edge id=":1015092138_0" function="internal">
        <lane id=":1015092138_0_0" index="0" allow="delivery bicycle pedestrian" speed="5.56" length="6.24" shape="638.31,443.01 635.67,448.66"/>
    </edge>
    <edge id=":1015092138_1" function="internal">
        <lane id=":1015092138_1_0" index="0" allow="delivery bicycle pedestrian" speed="5.56" length="7.85" shape="638.31,443.01 638.11,444.41 638.80,445.79 640.38,447.15 642.85,448.48"/>
    </edge>
    <edge id=":1015092138_2" function="internal">
        <lane id=":1015092138_2_0" index="0" allow="delivery bicycle pedestrian" speed="5.56" length="4.82" shape="638.31,443.01 638.55,444.47 639.13,445.19 640.05,445.16 641.31,444.38"/>
    </edge>
    <edge id=":1015092138_3" function="internal">
        <lane id=":1015092138_3_0" index="0" allow="delivery bicycle pedestrian" speed="5.56" length="5.11" shape="638.65,450.09 639.43,448.90 640.39,448.24 641.53,448.10 642.85,448.48"/>
    </edge>
    <edge id=":1015092138_4" function="internal">
        <lane id=":1015092138_4_0" index="0" allow="delivery bicycle pedestrian" speed="5.56" length="6.30" shape="638.65,450.09 641.31,444.38"/>
    </edge>
    <edge id=":1015092138_5" function="internal">
        <lane id=":1015092138_5_0" index="0" allow="delivery bicycle pedestrian" speed="5.56" length="4.82" shape="638.65,450.09 638.44,448.61 637.87,447.89 636.95,447.90 635.67,448.66"/>
    </edge>
    <edge id=":1015092138_6" function="internal">
        <lane id=":1015092138_6_0" index="0" allow="delivery bicycle pedestrian" speed="5.56" length="5.02" shape="634.17,444.55 635.33,445.29 635.97,446.22 636.08,447.35 635.67,448.66"/>
    </edge>
    <edge id=":1015092138_7" function="internal">
        <lane id=":1015092138_7_0" index="0" allow="delivery bicycle pedestrian" speed="5.56" length="9.54" shape="634.17,444.55 642.85,448.48"/>
    </edge>
    <edge id=":1015092138_8" function="internal">
        <lane id=":1015092138_8_0" index="0" allow="delivery bicycle pedestrian" speed="5.56" length="7.88" shape="634.17,444.55 636.81,445.53 638.88,445.83 640.38,445.45 641.31,444.38"/>
    </edge>
    <edge id=":1015092140_0" function="internal">
        <lane id=":1015092140_0_0" index="0" allow="delivery bicycle pedestrian" speed="5.56" length="9.02" shape="440.43,435.75 442.06,432.93 443.54,430.86 444.89,429.54 446.09,428.98"/>
    </edge>
    <edge id=":1015092140_1" function="internal">
        <lane id=":1015092140_1_0" index="0" allow="delivery bicycle pedestrian" speed="5.56" length="4.82" shape="440.43,435.75 440.28,434.27 439.74,433.52 438.82,433.50 437.51,434.20"/>
    </edge>
    <edge id=":1015092140_2" function="internal">
        <lane id=":1015092140_2_0" index="0" allow="delivery bicycle pedestrian" speed="5.56" length="6.16" shape="435.06,430.79 436.97,430.72 438.01,431.26 438.19,432.42 437.51,434.20"/>
    </edge>
    <edge id=":1015092140_3" function="internal">
        <lane id=":1015092140_3_0" index="0" allow="delivery bicycle pedestrian" speed="5.56" length="11.17" shape="435.06,430.79 438.17,430.28 440.57,429.88 442.98,429.49 446.09,428.98"/>
    </edge>
    <edge id=":1015092142_0" function="internal">
        <lane id=":1015092142_0_0" index="0" allow="delivery bicycle pedestrian" speed="5.56" length="4.82" shape="619.95,383.56 619.72,382.09 619.15,381.37 618.23,381.39 616.96,382.17"/>
    </edge>
    <edge id=":1015092143_0" function="internal">
        <lane id=":1015092143_0_0" index="0" allow="delivery bicycle pedestrian" speed="5.56" length="5.02" shape="416.34,440.40 415.61,441.57 414.68,442.22 413.55,442.34 412.23,441.94"/>
    </edge>
    <edge id=":1015092143_1" function="internal">
        <lane id=":1015092143_1_0" index="0" allow="delivery bicycle pedestrian" speed="5.56" length="4.82" shape="416.34,440.40 416.59,441.87 417.18,442.58 418.10,442.54 419.36,441.75"/>
    </edge>
    <edge id=":1015092143_2" function="internal">
        <lane id=":1015092143_2_0" index="0" allow="delivery bicycle pedestrian" speed="5.56" length="5.07" shape="420.85,445.95 419.71,445.20 419.08,444.25 418.96,443.10 419.36,441.75"/>
    </edge>
    <edge id=":1015092143_3" function="internal">
        <lane id=":1015092143_3_0" index="0" allow="delivery bicycle pedestrian" speed="5.56" length="9.50" shape="420.85,445.95 412.23,441.94"/>
    </edge>
    <edge id=":1015092145_0" function="internal">
        <lane id=":1015092145_0_0" index="0" allow="delivery bicycle pedestrian" speed="5.56" length="6.59" shape="649.93,463.23 651.07,461.46 652.14,460.92 653.12,461.59 654.04,463.48"/>
    </edge>
    <edge id=":1015092145_1" function="internal">
        <lane id=":1015092145_1_0" index="0" allow="delivery bicycle pedestrian" speed="5.56" length="4.82" shape="649.93,463.23 649.74,461.75 649.19,461.01 648.26,461.02 646.98,461.76"/>
    </edge>
    <edge id=":1015092145_2" function="internal">
        <lane id=":1015092145_2_0" index="0" allow="delivery bicycle pedestrian" speed="5.56" length="9.07" shape="648.40,453.21 649.02,454.45 648.99,456.28 648.31,458.72 646.98,461.76"/>
    </edge>
    <edge id=":1015092145_3" function="internal">
        <lane id=":1015092145_3_0" index="0" allow="delivery bicycle pedestrian" speed="5.56" length="11.86" shape="648.40,453.21 650.55,455.63 651.93,457.89 652.96,460.38 654.04,463.48"/>
    </edge>
    <edge id=":1015092149_0" function="internal">
        <lane id=":1015092149_0_0" index="0" allow="delivery bicycle pedestrian" speed="5.56" length="6.18" shape="249.03,429.30 255.13,430.25"/>
    </edge>
    <edge id=":1015092149_1" function="internal">
        <lane id=":1015092149_1_0" index="0" allow="delivery bicycle pedestrian" speed="5.56" length="5.59" shape="251.89,426.17 252.32,427.80 253.01,429.03 253.94,429.84 255.13,430.25"/>
    </edge>
    <edge id=":1015092153_0" function="internal">
        <lane id=":1015092153_0_0" index="0" allow="delivery bicycle pedestrian" speed="5.56" length="5.87" shape="534.95,488.22 533.99,489.71 532.96,490.26 531.86,489.86 530.70,488.53"/>
    </edge>
    <edge id=":1015092153_1" function="internal">
        <lane id=":1015092153_1_0" index="0" allow="delivery bicycle pedestrian" speed="5.56" length="4.82" shape="534.95,488.22 535.16,489.70 535.73,490.42 536.65,490.40 537.93,489.64"/>
    </edge>
    <edge id=":1015092153_2" function="internal">
        <lane id=":1015092153_2_0" index="0" allow="delivery bicycle pedestrian" speed="5.56" length="8.23" shape="536.54,497.31 535.94,496.50 535.97,494.95 536.64,492.67 537.93,489.64"/>
    </edge>
    <edge id=":1015092153_3" function="internal">
        <lane id=":1015092153_3_0" index="0" allow="delivery bicycle pedestrian" speed="5.56" length="10.85" shape="536.54,497.31 534.12,495.61 532.97,493.67 532.15,491.36 530.70,488.53"/>
    </edge>
    <edge id=":1015092154_0" function="internal">
        <lane id=":1015092154_0_0" index="0" allow="delivery bicycle pedestrian" speed="5.56" length="7.90" shape="292.99,432.59 293.19,434.02 294.25,435.15 296.16,435.99 298.92,436.54"/>
    </edge>
    <edge id=":1015092154_1" function="internal">
        <lane id=":1015092154_1_0" index="0" allow="delivery bicycle pedestrian" speed="5.56" length="4.82" shape="292.99,432.59 293.63,433.93 294.39,434.45 295.27,434.16 296.26,433.05"/>
    </edge>
    <edge id=":1015092154_2" function="internal">
        <lane id=":1015092154_2_0" index="0" allow="delivery bicycle pedestrian" speed="5.56" length="10.00" shape="289.00,435.31 298.92,436.54"/>
    </edge>
    <edge id=":1015092154_3" function="internal">
        <lane id=":1015092154_3_0" index="0" allow="delivery bicycle pedestrian" speed="5.56" length="8.32" shape="289.00,435.31 292.01,435.48 294.22,435.17 295.64,434.36 296.26,433.05"/>
    </edge>
    <edge id=":1015092156_0" function="internal">
        <lane id=":1015092156_0_0" index="0" allow="delivery bicycle pedestrian" speed="5.56" length="4.82" shape="583.73,390.81 583.47,389.34 582.87,388.64 581.95,388.69 580.70,389.50"/>
    </edge>
    <edge id=":1015092158_0" function="internal">
        <lane id=":1015092158_0_0" index="0" allow="delivery bicycle pedestrian" speed="5.56" length="5.13" shape="249.00,505.15 248.57,506.51 247.81,507.36 246.72,507.69 245.31,507.51"/>
    </edge>
    <edge id=":1015092158_1" function="internal">
        <lane id=":1015092158_1_0" index="0" allow="delivery bicycle pedestrian" speed="5.56" length="4.82" shape="249.00,505.15 249.61,506.51 250.36,507.05 251.24,506.78 252.26,505.69"/>
    </edge>
    <edge id=":1015092158_2" function="internal">
        <lane id=":1015092158_2_0" index="0" allow="delivery bicycle pedestrian" speed="5.56" length="5.46" shape="254.49,510.06 253.29,509.49 252.52,508.57 252.17,507.31 252.26,505.69"/>
    </edge>
    <edge id=":1015092158_3" function="internal">
        <lane id=":1015092158_3_0" index="0" allow="delivery bicycle pedestrian" speed="5.56" length="9.54" shape="254.49,510.06 245.31,507.51"/>
    </edge>
    <edge id=":1015092160_0" function="internal">
        <lane id=":1015092160_0_0" index="0" allow="delivery bicycle pedestrian" speed="5.56" length="7.42" shape="324.64,426.01 324.11,428.50 323.39,430.38 322.48,431.66 321.38,432.33"/>
    </edge>
    <edge id=":1015092160_1" function="internal">
        <lane id=":1015092160_1_0" index="0" allow="delivery bicycle pedestrian" speed="5.56" length="13.05" shape="324.64,426.01 324.57,429.87 325.80,432.23 328.32,433.10 332.12,432.48"/>
    </edge>
    <edge id=":1015092160_2" function="internal">
        <lane id=":1015092160_2_0" index="0" allow="delivery bicycle pedestrian" speed="5.56" length="4.82" shape="324.64,426.01 325.26,427.35 326.01,427.89 326.89,427.61 327.90,426.51"/>
    </edge>
    <edge id=":1015092160_3" function="internal">
        <lane id=":1015092160_3_0" index="0" allow="delivery bicycle pedestrian" speed="5.56" length="5.68" shape="331.15,429.32 329.50,429.59 328.40,429.22 327.87,428.19 327.90,426.51"/>
    </edge>
    <edge id=":1015092160_4" function="internal">
        <lane id=":1015092160_4_0" index="0" allow="delivery bicycle pedestrian" speed="5.56" length="10.23" shape="331.15,429.32 328.28,430.21 326.27,430.83 324.25,431.45 321.38,432.33"/>
    </edge>
    <edge id=":1015092160_5" function="internal">
        <lane id=":1015092160_5_0" index="0" allow="delivery bicycle pedestrian" speed="5.56" length="4.82" shape="331.15,429.32 330.21,430.48 330.06,431.38 330.70,432.05 332.12,432.48"/>
    </edge>
    <edge id=":1015092160_6" function="internal">
        <lane id=":1015092160_6_0" index="0" allow="delivery bicycle pedestrian" speed="5.56" length="10.23" shape="322.35,435.48 325.22,434.60 327.24,433.98 329.25,433.36 332.12,432.48"/>
    </edge>
    <edge id=":1015092160_7" function="internal">
        <lane id=":1015092160_7_0" index="0" allow="delivery bicycle pedestrian" speed="5.56" length="11.09" shape="322.35,435.48 324.34,434.42 325.92,432.57 327.11,429.93 327.90,426.51"/>
    </edge>
    <edge id=":1015092160_8" function="internal">
        <lane id=":1015092160_8_0" index="0" allow="delivery bicycle pedestrian" speed="5.56" length="4.82" shape="322.35,435.48 323.29,434.33 323.44,433.42 322.81,432.75 321.38,432.33"/>
    </edge>
    <edge id=":1015092162_0" function="internal">
        <lane id=":1015092162_0_0" index="0" allow="delivery bicycle pedestrian" speed="5.56" length="6.44" shape="492.78,467.61 491.77,469.44 490.67,470.70 489.48,471.38 488.19,471.49"/>
    </edge>
    <edge id=":1015092162_1" function="internal">
        <lane id=":1015092162_1_0" index="0" allow="delivery bicycle pedestrian" speed="5.56" length="4.82" shape="492.78,467.61 493.02,469.07 493.60,469.79 494.52,469.76 495.79,468.97"/>
    </edge>
    <edge id=":1015092162_2" function="internal">
        <lane id=":1015092162_2_0" index="0" allow="delivery bicycle pedestrian" speed="5.56" length="5.40" shape="497.90,472.79 496.41,472.37 495.56,471.59 495.35,470.46 495.79,468.97"/>
    </edge>
    <edge id=":1015092162_3" function="internal">
        <lane id=":1015092162_3_0" index="0" allow="delivery bicycle pedestrian" speed="5.56" length="9.80" shape="497.90,472.79 488.19,471.49"/>
    </edge>
    <edge id=":1015092164_0" function="internal">
        <lane id=":1015092164_0_0" index="0" allow="delivery bicycle pedestrian" speed="5.56" length="6.24" shape="624.09,436.57 621.46,442.23"/>
    </edge>
    <edge id=":1015092164_1" function="internal">
        <lane id=":1015092164_1_0" index="0" allow="delivery bicycle pedestrian" speed="5.56" length="7.85" shape="624.09,436.57 623.89,437.97 624.58,439.35 626.16,440.71 628.63,442.04"/>
    </edge>
    <edge id=":1015092164_2" function="internal">
        <lane id=":1015092164_2_0" index="0" allow="delivery bicycle pedestrian" speed="5.56" length="4.82" shape="624.09,436.57 624.33,438.04 624.91,438.76 625.83,438.72 627.09,437.94"/>
    </edge>
    <edge id=":1015092164_3" function="internal">
        <lane id=":1015092164_3_0" index="0" allow="delivery bicycle pedestrian" speed="5.56" length="5.09" shape="624.44,443.64 625.22,442.46 626.17,441.80 627.31,441.66 628.63,442.04"/>
    </edge>
    <edge id=":1015092164_4" function="internal">
        <lane id=":1015092164_4_0" index="0" allow="delivery bicycle pedestrian" speed="5.56" length="6.29" shape="624.44,443.64 627.09,437.94"/>
    </edge>
    <edge id=":1015092164_5" function="internal">
        <lane id=":1015092164_5_0" index="0" allow="delivery bicycle pedestrian" speed="5.56" length="4.82" shape="624.44,443.64 624.23,442.17 623.66,441.44 622.74,441.46 621.46,442.23"/>
    </edge>
    <edge id=":1015092164_6" function="internal">
        <lane id=":1015092164_6_0" index="0" allow="delivery bicycle pedestrian" speed="5.56" length="5.02" shape="619.95,438.11 621.12,438.85 621.75,439.78 621.87,440.91 621.46,442.23"/>
    </edge>
    <edge id=":1015092164_7" function="internal">
        <lane id=":1015092164_7_0" index="0" allow="delivery bicycle pedestrian" speed="5.56" length="9.53" shape="619.95,438.11 628.63,442.04"/>
    </edge>
    <edge id=":1015092164_8" function="internal">
        <lane id=":1015092164_8_0" index="0" allow="delivery bicycle pedestrian" speed="5.56" length="7.88" shape="619.95,438.11 622.59,439.09 624.67,439.39 626.17,439.01 627.09,437.94"/>
    </edge>
    <edge id=":1015092170_0" function="internal">
        <lane id=":1015092170_0_0" index="0" allow="delivery bicycle pedestrian" speed="5.56" length="5.17" shape="234.88,501.19 234.48,502.58 233.74,503.44 232.65,503.78 231.22,503.60"/>
    </edge>
    <edge id=":1015092170_1" function="internal">
        <lane id=":1015092170_1_0" index="0" allow="delivery bicycle pedestrian" speed="5.56" length="4.82" shape="234.88,501.19 235.53,502.53 236.29,503.05 237.16,502.75 238.15,501.64"/>
    </edge>
    <edge id=":1015092170_2" function="internal">
        <lane id=":1015092170_2_0" index="0" allow="delivery bicycle pedestrian" speed="5.56" length="5.59" shape="240.43,506.15 239.24,505.58 238.46,504.64 238.10,503.32 238.15,501.64"/>
    </edge>
    <edge id=":1015092170_3" function="internal">
        <lane id=":1015092170_3_0" index="0" allow="delivery bicycle pedestrian" speed="5.56" length="9.56" shape="240.43,506.15 231.22,503.60"/>
    </edge>
    <edge id=":1015092171_0" function="internal">
        <lane id=":1015092171_0_0" index="0" allow="delivery bicycle pedestrian" speed="5.56" length="8.70" shape="647.90,492.59 644.27,500.50"/>
    </edge>
    <edge id=":1015092171_1" function="internal">
        <lane id=":1015092171_1_0" index="0" allow="delivery bicycle pedestrian" speed="5.56" length="7.45" shape="647.90,492.59 647.12,494.79 646.96,496.67 647.42,498.21 648.51,499.41"/>
    </edge>
    <edge id=":1015092171_2" function="internal">
        <lane id=":1015092171_2_0" index="0" allow="delivery bicycle pedestrian" speed="5.56" length="8.50" shape="650.48,496.77 648.83,496.06 647.25,496.45 645.73,497.93 644.27,500.50"/>
    </edge>
    <edge id=":1015092171_3" function="internal">
        <lane id=":1015092171_3_0" index="0" allow="delivery bicycle pedestrian" speed="5.56" length="4.82" shape="650.48,496.77 649.00,496.69 648.17,497.10 648.01,498.01 648.51,499.41"/>
    </edge>
    <edge id=":1015092172_0" function="internal">
        <lane id=":1015092172_0_0" index="0" allow="delivery bicycle pedestrian" speed="5.56" length="4.82" shape="266.04,424.72 265.49,423.34 264.77,422.76 263.88,423.00 262.82,424.04"/>
    </edge>
    <edge id=":1015092173_0" function="internal">
        <lane id=":1015092173_0_0" index="0" allow="delivery bicycle pedestrian" speed="5.56" length="9.60" shape="479.20,428.45 480.80,425.32 482.24,422.99 483.54,421.48 484.69,420.77"/>
    </edge>
    <edge id=":1015092173_1" function="internal">
        <lane id=":1015092173_1_0" index="0" allow="delivery bicycle pedestrian" speed="5.56" length="4.82" shape="479.20,428.45 478.98,426.98 478.41,426.26 477.49,426.28 476.22,427.04"/>
    </edge>
    <edge id=":1015092173_2" function="internal">
        <lane id=":1015092173_2_0" index="0" allow="delivery bicycle pedestrian" speed="5.56" length="6.35" shape="473.54,423.86 475.51,423.56 476.61,423.99 476.85,425.15 476.22,427.04"/>
    </edge>
    <edge id=":1015092173_3" function="internal">
        <lane id=":1015092173_3_0" index="0" allow="delivery bicycle pedestrian" speed="5.56" length="11.58" shape="473.54,423.86 476.63,423.01 479.11,422.32 481.59,421.63 484.69,420.77"/>
    </edge>
    <edge id=":1015092174_0" function="internal">