<?xml version="1.0" encoding="UTF-8"?>

<!-- generated on Mon May  6 20:39:24 2019 by Eclipse SUMO polyconvert Version 1.0.1
<configuration xmlns:xsi="http://www.w3.org/2001/XMLSchema-instance" xsi:noNamespaceSchemaLocation="http://sumo.dlr.de/xsd/polyconvertConfiguration.xsd">

    <input>
        <net-file value="/Users/alex/Desktop/proj/scenario/map.net.xml"/>
        <osm-files value="/Users/alex/Desktop/proj/scenario/../data/map.osm"/>
        <osm.keep-full-type value="true"/>
    </input>

    <output>
        <output-file value="/Users/alex/Desktop/proj/scenario/map.poly.xml"/>
    </output>

    <processing>
        <poi-layer-offset value="5"/>
    </processing>

    <report>
        <verbose value="true"/>
    </report>

</configuration>
-->

<additional xmlns:xsi="http://www.w3.org/2001/XMLSchema-instance" xsi:noNamespaceSchemaLocation="http://sumo.dlr.de/xsd/additional_file.xsd">
    <location netOffset="-345334.99,-4829121.96" convBoundary="-6124.79,-1591.48,3376.92,4281.38" origBoundary="7.007301,43.585243,7.125304,43.636679" projParameter="+proj=utm +zone=32 +ellps=WGS84 +datum=WGS84 +units=m +no_defs"/>

    <poly id="23197571" type="amenity.parking" color="184,184,179" fill="1" layer="-1.00" shape="295.547600,386.947228 298.940815,388.069197 302.260624,389.159523 311.829824,392.317261 316.407430,383.855468 327.902634,387.191121 335.325619,372.541001 305.797916,359.719612 303.690138,365.324256 295.547600,386.947228"/>
    <poly id="23197572" type="amenity.parking" color="184,184,179" fill="1" layer="-1.00" shape="249.445837,381.330720 248.872967,368.031489 254.887641,360.258839 259.956993,360.175395 265.421825,360.082845 265.468928,357.570401 271.069178,357.396951 284.621689,356.440281 284.033028,359.631931 283.855696,360.347197 283.419158,362.079643 280.239748,374.798567 278.161620,383.091692 249.445837,381.330720"/>
    <poly id="23197575" type="amenity.parking" color="184,184,179" fill="1" layer="-1.00" shape="197.798401,377.909198 209.500594,380.762056 229.183311,383.008787 229.293221,374.460964 229.165963,367.185397 197.786235,367.219528 197.798401,377.909198"/>
    <poly id="321165019" type="waterway.stream" color="181,209,209" fill="0" layer="-4.00" shape="339.145708,1392.932020 349.965879,1373.692033 355.549524,1352.850264 364.853216,1343.135067 380.555440,1347.962906 389.780414,1334.826995"/>
    <poly id="42123500" type="landuse.forest" color="140,196,107" fill="1" layer="-3.00" shape="1456.528913,1222.754376 1474.041936,1194.862576 1515.164767,1131.672466 1427.397557,1112.599205 1405.475667,1087.875998 1339.044915,1007.265834 1275.441932,959.605705 1275.976743,886.664494 1325.830234,849.309166 1313.180710,777.469746 1252.856405,689.708798 1204.590885,746.730085 1142.107175,791.787421 1130.302397,780.879031 1091.336102,754.547069 980.818008,685.918240 1018.458448,799.843786 927.637393,842.919361 910.663938,879.145493 918.264282,947.166496 982.481371,1001.409909 1069.153249,1007.434686 1086.135815,1131.890550 1179.419046,1216.894781 1269.941892,1189.530707 1307.239282,1239.392835 1312.741665,1305.184141 1303.387377,1343.790689 1392.289273,1384.693829 1499.286513,1358.967247 1574.427932,1422.444882 1618.862578,1398.938864 1684.106055,1386.836888 1720.292188,1343.984806 1696.664206,1299.620115 1616.026781,1286.448970 1584.769842,1229.446612 1456.528913,1222.754376"/>
    <poly id="44329006" type="waterway.river" color="181,209,209" fill="0" layer="-4.00" shape="-84.787521,984.677550 -80.259066,985.317501 -70.988743,986.748055 -58.382484,987.179283 -52.596492,987.379065 -23.453705,984.306055 8.904090,976.391824 21.772818,975.250320 37.737981,976.026485 49.207617,976.539704 66.176822,982.337727 82.712117,998.380170 82.736066,1010.969780 82.569662,1023.008171 77.956718,1039.705151 71.136567,1067.476394 68.941272,1085.017702 68.177158,1126.095054 71.059665,1155.142621 77.326477,1201.391649 83.154316,1217.414403 91.518652,1227.889204 110.273719,1237.979886 125.696777,1240.135539 132.716608,1238.529056 136.903010,1234.498781 173.488865,1185.883692 192.795616,1170.170397 209.422715,1160.452857 221.344567,1154.677522 243.226115,1156.084542 261.846750,1166.300977 271.771456,1176.173314 289.764286,1183.326201 299.653758,1191.321423 331.862813,1265.675909 350.225179,1295.900515 381.658601,1331.702554 389.780414,1334.826995 404.991554,1330.598630 447.486534,1318.363792 473.091975,1306.540084 503.248427,1281.254899 525.390593,1259.265627 553.953547,1245.774058 584.180246,1238.267172 599.834032,1230.450959 644.009204,1231.557869 658.133139,1229.544189 693.735078,1242.316253 723.453807,1260.490832 768.956830,1307.472491 775.718445,1312.551040 791.983193,1332.746177 798.848443,1354.646216 796.762419,1376.318431 805.550820,1401.452408 819.150435,1412.485684 829.433270,1417.261190 840.512964,1422.985177 885.400953,1436.567339 908.895535,1439.006228 940.998548,1450.315231 950.435002,1485.424349 960.962306,1499.106402 974.099555,1562.511148 979.874206,1572.801910 994.858959,1590.748853 996.878608,1611.571195 1001.819516,1618.603004 1014.021030,1627.146244 1048.538201,1642.734097 1080.408173,1646.748361 1126.162701,1683.436597 1158.258129,1697.302541 1183.258322,1714.409237 1214.718589,1746.380587 1233.336185,1761.188969 1249.768576,1771.535902 1279.707287,1778.684481 1348.328117,1789.103818 1383.290273,1793.515428 1407.731519,1803.523934 1499.451514,1922.426523 1527.796053,1970.071911 1537.876252,1976.286539 1550.278058,1980.936870 1554.094351,1981.894189 1570.755496,1986.047174 1588.266228,1999.470532 1613.492694,2018.807102 1655.700130,2058.435569"/>
    <poly id="4837841" type="amenity.parking" color="184,184,179" fill="1" layer="-1.00" shape="162.903183,469.955893 175.125128,471.541023 184.183141,486.155944 274.435683,506.700838 284.419634,450.743133 288.357878,432.406178 303.810742,434.728320 332.923762,428.501803 335.017824,420.197218 320.205191,415.871175 305.608889,412.173578 280.911265,417.976253 263.093592,422.720442 254.247769,421.868561 248.537937,413.076998 183.815074,403.267288 181.919500,411.767374 168.189447,437.597493 162.903183,469.955893"/>
    <poly id="532600821" type="building.yes" color="255,230,230" fill="1" layer="-1.00" shape="378.302380,379.919085 362.573308,381.036795 354.208207,389.141261 362.910293,395.674919 379.695457,394.832928 378.302380,379.919085"/>
    <poly id="628410065" type="building.service" color="255,230,230" fill="1" layer="-1.00" shape="482.588399,381.075274 482.177651,381.473649 481.914735,381.979746 481.838984,382.548210 481.940538,383.101483 482.218632,383.606247 482.639193,383.985500 483.169426,384.217771 483.735670,384.260306 484.313969,384.124770 484.815031,383.790990 485.175565,383.315985 485.348168,382.745293 485.334628,382.156658 485.120080,381.605984 484.730014,381.148244 484.231043,380.870805 483.671081,380.750340 483.099320,380.819053 482.588399,381.075274"/>
    <poly id="664589226" type="landuse.retail" color="194,194,130" fill="1" layer="-3.00" shape="87.979143,473.339140 105.443907,428.087446 156.606787,395.438038 252.467859,396.484828 258.242990,418.276176 296.756883,405.443426 303.658076,404.606643 398.273531,422.419167 497.555717,398.799418 591.612039,368.778445 640.150924,379.964051 662.105013,529.574016 674.033300,590.439160 553.793734,649.997281 340.879090,547.096993 283.404875,525.885045 235.308669,510.069157 187.122359,497.011510 87.979143,473.339140"/>
    <poly id="664589228" type="landuse.retail" color="194,194,130" fill="1" layer="-3.00" shape="175.969616,372.245010 133.566925,359.309975 114.305374,352.920063 97.789666,326.231527 84.884805,315.005752 58.532502,297.745083 55.384934,291.872644 55.263007,283.085687 57.794282,277.293394 68.818317,266.838105 87.637385,247.024375 111.329682,213.008045 223.944319,50.474401 242.835263,43.549666 251.035532,32.481919 252.202500,12.675316 269.773163,-13.009657 318.218183,-62.518885 350.807435,-94.994466 366.569018,-103.169140 440.917159,-160.296460 510.771541,-248.889256 611.978308,-220.134938 633.830388,-181.533331 509.917918,-184.863482 493.113935,-143.339762 624.224504,-112.806084 631.107441,-81.072310 643.812296,-60.262214 619.540189,-12.311080 593.201397,-24.429207 535.639773,-50.330821 473.543620,-66.204484 435.788048,73.788645 377.955515,56.462124 351.270828,126.149777 339.229977,124.737925 314.639064,166.785963 307.141609,240.632510 314.440099,243.364728 315.902217,291.780264 346.154192,300.973570 378.455196,225.178201 431.822032,241.162828 389.616513,352.233751 437.205232,367.373498 515.041079,337.813605 562.092010,348.188357 579.556135,352.287296 578.249867,357.640062 396.013949,407.747509 325.641657,398.066471 296.767060,390.808415 279.947338,386.995394 233.710965,383.949015 193.108669,377.294983 175.969616,372.245010"/>
    <poly id="671123496" type="landuse.grass" color="194,194,130" fill="1" layer="-3.00" shape="258.242990,418.276176 252.467859,396.484828 267.263217,395.499487 277.635439,394.604947 303.658076,404.606643 296.756883,405.443426 258.242990,418.276176"/>
    <poly id="671444657" type="landuse.residential" color="235,235,227" fill="1" layer="-3.00" shape="559.539002,733.751109 537.992692,722.045395 514.568700,695.059216 449.510968,665.641758 423.815985,648.420192 383.728524,627.218478 381.296745,631.374860 354.639016,627.765937 257.639615,615.365165 200.927176,598.114561 153.666076,577.179515 119.810650,574.515300 91.322530,546.180458 0.549062,597.201718 -19.056785,607.710757 -40.440283,638.107346 -56.216373,670.741470 -82.269948,700.301488 -121.877292,774.423610 -115.967547,772.631395 -113.537975,766.296864 -108.105377,760.626391 -103.045722,763.632086 -102.378963,768.028251 -105.546912,770.012716 -105.605812,776.203597 -103.585721,782.557600 -97.272420,782.156226 -94.344467,777.821510 -90.384823,776.552177 -80.673789,784.117626 -75.864059,807.075591 -75.572144,829.860065 -70.799259,850.874240 -76.951778,866.629005 -61.569940,868.707436 -32.780680,875.832499 -24.792475,852.845787 -12.449642,850.249553 26.204147,883.849908 30.438524,903.587547 73.070840,913.660644 102.731736,916.932445 137.484552,951.234544 159.813909,990.245894 164.347744,1028.945270 156.916271,1073.643318 170.468374,1080.787172 169.247288,1096.116865 232.792336,1119.921336 249.832113,1088.158854 297.150960,1110.715461 368.328767,1124.488827 374.437355,1099.079000 444.507870,1119.123728 458.455036,1109.068466 532.296601,1101.413493 553.455514,1084.036308 571.537740,1100.699933 610.429045,1101.628139 696.971124,1136.820545 776.018919,1187.465381 808.898315,1237.448604 833.122946,1236.836874 892.118650,1335.603482 1003.086410,1400.653138 1156.795087,1513.985391 1344.915515,1544.714654 1425.811905,1547.775567 1515.795761,1554.218948 1575.045673,1559.732203 1600.703907,1564.324247 1613.437393,1571.800740 1630.898961,1606.360629 1632.575170,1634.502691 1678.035352,1653.844138 1734.529461,1690.413376 1850.372021,1653.744905 1962.253727,1687.663925 1957.172100,1557.868200 1810.338793,1494.299262 1765.672726,1411.777533 1601.105404,1446.537665 1554.396768,1424.924986 1433.243217,1382.701494 1360.720426,1352.946354 1299.723676,1356.220137 1253.255407,1323.669625 1213.277020,1280.136442 1218.806151,1218.715204 1266.584961,1224.533026 1299.025087,1184.942426 1290.090776,1154.066249 1152.581116,1069.595691 1084.091566,1029.305515 1002.347675,1015.633511 946.297541,1016.096684 905.043583,981.184143 836.544138,947.608365 781.437218,918.848432 720.850984,917.672998 665.138952,917.430647 622.450420,918.911804 560.603078,921.189360 546.068377,913.445039 512.498805,878.891457 547.243528,863.424242 572.437629,835.031080 549.541801,823.967544 536.722508,813.227942 533.706401,810.585932 548.279710,783.481505 552.515994,759.826236 559.539002,733.751109"/>
    <poly id="671775684" type="landuse.industrial" color="209,209,204" fill="1" layer="-3.00" shape="1917.184738,1244.851826 1916.604093,1274.634364 1940.026248,1267.522123 1958.433499,1275.247771 1998.681262,1302.833178 2026.322323,1301.581195 2027.553409,1273.039537 2020.460189,1251.588109 2026.575341,1243.925927 2015.678520,1207.204243 1976.288680,1175.832168 1992.154023,1126.910859 1965.078984,1097.758489 1936.923705,1191.975046 1917.184738,1244.851826"/>
    <poly id="671775687" type="landuse.industrial" color="209,209,204" fill="1" layer="-3.00" shape="1828.936289,1132.331641 1826.417905,1124.577274 1867.207533,1099.022663 1909.042870,1082.845308 1939.722033,1076.334412 1960.906558,1092.175291 1965.078984,1097.758489 1936.923705,1191.975046 1828.936289,1132.331641"/>
    <poly id="671775688" type="landuse.industrial" color="209,209,204" fill="1" layer="-3.00" shape="1691.861419,1242.380143 1750.605982,1201.580231 1757.242843,1215.730063 1763.372392,1233.125100 1763.954767,1258.647432 1727.588145,1257.188261 1691.861419,1242.380143"/>
    <poly id="671775689" type="landuse.greenhouse_horticulture" color="194,194,130" fill="1" layer="-3.00" shape="1763.954767,1258.647432 1763.372392,1233.125100 1750.605982,1201.580231 1777.201889,1177.149016 1811.186355,1140.703877 1823.022668,1141.745124 1885.854597,1174.259758 1880.837567,1198.209592 1925.215172,1208.932281 1917.184738,1244.851826 1916.604093,1274.634364 1913.982350,1282.528156 1845.664849,1276.018492 1767.192044,1265.351949 1763.954767,1258.647432"/>
    <poly id="671921128" type="landuse.commercial" color="209,209,204" fill="1" layer="-3.00" shape="428.156057,1613.649175 449.401783,1577.678817 472.750150,1494.133208 467.571364,1470.127770 504.758694,1446.214235 591.576731,1428.960276 644.716932,1433.061301 740.555547,1482.652918 801.828690,1562.131216 787.395090,1615.667855 766.150863,1667.238550 726.234377,1680.578992 716.609485,1726.560177 652.544199,1680.494562 472.504212,1638.164295 428.156057,1613.649175"/>
    <poly id="679227448" type="landuse.residential" color="235,235,227" fill="1" layer="-3.00" shape="1765.201641,-828.830949 1763.538244,-783.833595 1767.468240,-775.122455 1775.247892,-755.909295 1791.885871,-715.862960 1796.571478,-705.179973 1817.408351,-661.262308 1848.473350,-589.186394 1834.511342,-516.117453 1875.226914,-492.221092 1836.172231,-448.216132 1794.593387,-364.405477 1708.340009,-232.793511 1655.984598,-182.883380 1514.860986,-90.564062 1385.294669,1.638604 1309.521369,57.420995 1254.353868,130.667659 1202.975031,172.525232 1099.981032,223.988529 1044.643363,231.512676 934.540759,201.100516 899.126091,202.335086 767.925473,277.986306 658.743475,335.477044 681.564145,502.435471 688.734240,558.298350 701.700971,597.593160 602.169168,639.050803 575.938587,650.499318 572.611966,671.933431 696.696475,733.354511 880.798273,840.538133 960.646501,878.476760 1018.458448,799.843786 980.818008,685.918240 969.239913,648.646875 1012.946298,665.779760 1058.941018,707.018289 1091.336102,754.547069 1130.302397,780.879031 1142.107175,791.787421 1204.590885,746.730085 1252.856405,689.708798 1313.180710,777.469746 1325.830234,849.309166 1275.976743,886.664494 1275.441932,959.605705 1339.044915,1007.265834 1405.475667,1087.875998 1427.397557,1112.599205 1515.164767,1131.672466 1474.041936,1194.862576 1456.528913,1222.754376 1568.399991,1213.385770 1677.527468,1171.189829 1713.706752,1128.337938 1729.923953,1016.013333 1747.700059,936.945101 1738.434482,886.163096 1770.668697,848.679896 1712.824773,732.378218 1730.173818,661.453807 1763.158917,702.138205 1772.606080,736.459074 1794.369205,741.140857 1804.640185,773.709485 1833.026912,834.800866 1872.661510,861.210636 1907.895560,856.818215 1903.876467,870.722153 1996.047388,895.190769 2038.395592,917.772660 2079.447931,960.052684 1992.473636,927.586119 1956.747347,950.402055 1921.880244,993.544845 1907.561728,1011.139409 1942.894984,1056.838167 1998.258867,1118.437709 2041.109959,1146.497469 2070.836418,1155.599112 2091.207737,1100.641618 2058.398767,1075.675351 2079.306232,1045.674465 2073.493239,1030.094349 2108.913330,981.772678 2188.400226,1041.513389 2236.724839,936.082840 2276.504712,900.097373 2318.396528,908.334585 2354.991299,974.830709 2415.154877,956.417690 2414.703401,908.468343 2400.934823,773.703099 2422.534490,763.044872 2496.739031,729.212485 2515.896647,764.624968 2528.385044,943.045268 2543.388992,1069.393038 2638.220244,1087.520439 2665.315988,1126.620187 2653.081227,1156.411282 2681.866085,1173.170916 2873.804242,1152.541258 2950.310088,1111.338823 3014.488751,1101.229855 3033.446062,1106.190188 3099.682596,1088.890464 3145.696420,1061.358894 3192.981465,1045.399843 3251.177737,1042.784547 3262.752721,1047.278951 3322.130041,1029.747535 3376.922039,983.629057 3365.971233,899.491953 3364.653050,802.836437 3359.867366,637.709475 3291.149189,652.251095 3290.480393,620.852649 3288.449615,621.031860 3268.815035,-18.774117 3323.472726,-13.996754 3320.818002,-83.653250 3269.343625,-80.112979 3261.770319,-227.719915 3309.747934,-228.447703 3297.959718,-470.855533 3218.815103,-545.918505 3146.489225,-570.764192 3132.502347,-635.397511 3191.660288,-680.459812 3184.814852,-753.599627 3189.754947,-765.156546 3142.220858,-783.228429 3147.938354,-822.927314 3054.237103,-876.069085 3073.273748,-951.794142 2956.275529,-1049.622535 2891.318665,-1183.963157 2847.280571,-1301.464390 2802.350167,-1357.007036 2787.055113,-1393.252400 2781.214695,-1391.853366 2774.064916,-1390.135759 2759.982837,-1398.495257 2752.901931,-1404.790924 2773.005520,-1449.749738 2729.789993,-1474.095030 2751.571316,-1522.014357 2733.144981,-1553.477214 2665.176800,-1591.484679 2640.104499,-1585.782668 2574.970012,-1567.893520 2488.332502,-1547.571250 2362.118978,-1505.436419 2310.315424,-1496.703627 2313.850990,-1474.759939 2273.934392,-1467.585869 2270.637360,-1489.334946 2245.621321,-1474.076373 2217.680664,-1426.159669 2188.997258,-1363.324718 2203.106812,-1353.077968 2190.944456,-1334.877763 2173.308687,-1338.577109 2150.590589,-1318.203300 2110.553346,-1269.155330 2103.220331,-1219.762210 2122.911278,-1172.928458 2133.915620,-1136.909100 2137.425788,-1087.340384 2175.954636,-1060.603251 2189.963307,-1025.285521 2152.992063,-965.084273 2116.885984,-961.673861 2096.845680,-890.412010 2004.840808,-901.230164 2016.580601,-952.479493 2017.346827,-985.521930 1922.186036,-997.600621 1867.375899,-997.652012 1808.149058,-963.277122 1776.219308,-919.812186 1768.017582,-900.501311 1767.166294,-856.722586 1765.201641,-828.830949"/>
    <poly id="679228460" type="landuse.residential" color="235,235,227" fill="1" layer="-3.00" shape="1819.335562,-490.991590 1834.117308,-583.714283 1831.441102,-596.598836 1794.449406,-679.940536 1769.968533,-737.020629 1755.840736,-767.567784 1752.191288,-789.475340 1661.606886,-806.021642 1665.968843,-785.819414 1596.896895,-784.465198 1544.598042,-778.948485 1491.759505,-749.683609 1419.557429,-705.074437 1367.777879,-686.411451 1329.568543,-670.858657 1330.711858,-659.005964 1227.720791,-606.800915 1195.137550,-572.363236 1155.891296,-545.351292 1101.321881,-535.034153 1035.855028,-556.203109 982.157170,-573.751975 947.500191,-573.813122 873.875427,-553.778583 781.267984,-511.738867 707.146382,-465.555243 667.830166,-404.424375 587.550692,-344.085432 546.126032,-318.542034 522.704058,-266.265266 543.498779,-248.041565 593.550143,-273.849940 636.355683,-179.180012 508.152615,-180.855841 495.000850,-144.516599 631.259175,-115.590199 647.027596,-61.969577 620.349469,-9.073810 480.915263,-59.951195 456.705886,19.113264 437.154870,74.579499 547.296342,127.896129 548.311582,145.007771 484.199660,194.142287 441.654263,246.270451 421.583989,298.081715 403.730509,349.708692 436.990550,364.711511 514.856517,337.162230 580.215720,345.149224 599.939192,341.795565 625.135761,317.625303 654.983215,316.972770 707.965491,295.186978 691.649603,194.129844 653.102649,197.871230 638.784167,111.736398 709.439126,117.802891 761.639576,120.626790 839.481575,146.053696 899.942167,154.478540 904.957619,162.953186 918.433198,185.735143 952.087347,193.297425 1034.739716,215.515926 1067.477556,217.288125 1065.250707,174.379612 1088.961715,168.102459 1109.833429,142.577539 1063.259218,62.448207 1127.038892,33.840106 1215.945885,85.820375 1220.982246,147.788546 1248.548832,116.254744 1267.033873,87.329105 1285.823188,57.929855 1368.202660,-8.071464 1551.645403,-139.730841 1518.175005,-174.213873 1560.934771,-215.305233 1603.815161,-170.135882 1661.925331,-205.309816 1716.753994,-281.689731 1784.785885,-383.316829 1808.101684,-438.208721 1816.400923,-475.890057 1819.335562,-490.991590"/>
    <poly id="68041051" type="building.yes" color="255,230,230" fill="1" layer="-1.00" shape="187.250048,788.426552 194.267770,788.809295 193.848361,795.486296 186.690632,794.984546 187.250048,788.426552"/>
    <poly id="68041096" type="building.yes" color="255,230,230" fill="1" layer="-1.00" shape="1794.860353,695.058912 1790.138684,686.299162 1798.665244,686.282468 1801.089154,690.949821 1802.556186,690.482988 1804.182015,694.146233 1800.736324,696.013871 1803.716986,702.079762 1799.609045,704.295868 1794.860353,695.058912"/>
    <poly id="68041136" type="building.yes" color="255,230,230" fill="1" layer="-1.00" shape="1473.130841,336.516545 1491.446093,331.953156 1492.801308,337.544915 1486.473098,339.078545 1487.481009,342.900301 1478.519486,345.105285 1477.410911,341.119148 1476.927917,339.418922 1474.076679,340.095252 1473.130841,336.516545"/>
    <poly id="68041220" type="building.yes" color="255,230,230" fill="1" layer="-1.00" shape="1093.535547,1222.596197 1089.980629,1231.656295 1078.166608,1248.850888 1049.967782,1227.195168 1068.621245,1203.687612 1093.535547,1222.596197"/>
    <poly id="68041239" type="building.yes" color="255,230,230" fill="1" layer="-1.00" shape="845.121698,725.023584 841.475992,718.517743 846.290276,716.129252 842.608547,709.813144 844.655660,708.588269 846.076852,710.700300 849.625595,708.407531 852.275723,712.347090 856.435557,718.385538 845.121698,725.023584"/>
    <poly id="68041248" type="building.yes" color="255,230,230" fill="1" layer="-1.00" shape="781.626625,512.471861 778.216414,512.361251 776.582543,512.243195 776.631286,510.497465 776.750346,506.538798 778.931248,506.566510 782.339932,506.610482 781.626625,512.471861"/>
    <poly id="68041378" type="building.yes" color="255,230,230" fill="1" layer="-1.00" shape="1129.305498,893.501277 1136.124880,883.121868 1146.574155,890.205397 1145.563176,891.895379 1154.856307,897.505265 1155.751830,896.062397 1165.862295,902.809238 1164.614984,904.404621 1183.489174,916.917981 1182.445839,918.253110 1187.267988,921.498540 1181.665935,929.327558 1148.807633,906.633550 1149.829225,905.054448 1140.502474,899.034189 1139.558533,900.478169 1129.305498,893.501277"/>
    <poly id="68041395" type="building.yes" color="255,230,230" fill="1" layer="-1.00" shape="1352.964118,1380.593030 1351.074512,1368.935180 1359.446405,1367.487959 1361.812811,1378.812650 1356.853097,1379.770648 1352.964118,1380.593030"/>
    <poly id="68041408" type="building.yes" color="255,230,230" fill="1" layer="-1.00" shape="262.296462,725.668850 263.195374,721.225478 259.688166,720.406190 262.143545,711.670980 270.824460,713.793445 274.470149,714.665110 279.830495,716.008441 280.722211,712.654235 287.501558,714.253802 289.530712,714.707111 298.801532,716.849359 297.739534,720.874217 306.683684,722.857317 305.588236,727.182974 306.416037,727.363928 314.779862,729.393741 316.947488,729.899430 323.589608,731.502192 324.684016,727.832183 333.187591,729.969923 333.928689,726.385837 336.922580,727.005852 340.882747,727.859199 343.050115,728.353790 340.977791,737.246828 336.793445,736.476429 335.760897,740.378368 331.091183,739.219109 326.991520,738.268971 326.111948,741.800686 321.591595,740.815790 317.955277,739.999445 317.306309,739.869932 317.213926,740.416558 316.487329,743.578048 312.752887,742.708405 311.738443,742.487300 306.153685,741.215787 307.175331,737.191860 306.486010,737.063278 303.579362,736.374594 297.955779,735.170655 298.683647,732.064695 299.600489,728.398771 296.066635,727.824546 295.606680,729.590870 290.398270,728.532946 291.116298,724.649356 287.422194,723.778797 285.578409,723.310107 283.451387,722.814604 282.455127,726.537921 280.692048,726.067373 277.696616,725.380745 273.813050,724.347875 272.792956,728.438445 267.619264,727.135269 263.961416,726.086093 262.296462,725.668850"/>
    <poly id="68041494" type="building.yes" color="255,230,230" fill="1" layer="-1.00" shape="1434.174728,723.919839 1430.598329,724.657225 1430.021180,722.370212 1433.636410,721.565265 1434.028079,723.156456 1434.174728,723.919839"/>
    <poly id="68041623" type="building.yes" color="255,230,230" fill="1" layer="-1.00" shape="1535.825344,475.718797 1538.925914,474.647870 1542.008563,482.689284 1538.868911,483.816663 1535.825344,475.718797"/>
    <poly id="68041653" type="building.yes" color="255,230,230" fill="1" layer="-1.00" shape="1586.171221,1069.533430 1585.975721,1059.914802 1592.308983,1059.692347 1592.289625,1069.449228 1586.171221,1069.533430"/>
    <poly id="68041760" type="building.yes" color="255,230,230" fill="1" layer="-1.00" shape="415.432107,1055.631038 407.420736,1053.459660 407.814963,1051.994885 408.209191,1050.530111 414.270944,1052.190756 414.986881,1049.618468 416.936501,1050.129203 415.432107,1055.631038"/>
    <poly id="68041792" type="building.yes" color="255,230,230" fill="1" layer="-1.00" shape="1734.375059,344.818811 1727.939279,345.532370 1727.288504,340.368984 1725.580752,340.552408 1724.835503,334.079951 1739.099312,332.443274 1739.781537,339.339430 1733.798486,340.075991 1734.375059,344.818811"/>
    <poly id="68041838" type="building.yes" color="255,230,230" fill="1" layer="-1.00" shape="1405.687069,863.039439 1412.053226,863.893946 1411.155763,870.903998 1404.701093,870.062628 1405.687069,863.039439"/>
    <poly id="68041971" type="building.yes" color="255,230,230" fill="1" layer="-1.00" shape="732.517203,922.527735 731.620384,926.370925 721.550452,923.868641 723.021226,917.945399 731.348397,920.154351 730.911630,922.231249 732.517203,922.527735"/>
    <poly id="68041991" type="building.yes" color="255,230,230" fill="1" layer="-1.00" shape="1991.768306,602.784995 1986.836178,603.564073 1985.628890,597.002114 1985.030165,593.759915 1983.675812,593.857441 1982.123831,584.925350 1992.165417,583.352040 1993.714602,592.161963 1992.156231,592.519712 1993.242428,598.728844 1991.299424,598.862001 1991.768306,602.784995"/>
    <poly id="68042053" type="building.yes" color="255,230,230" fill="1" layer="-1.00" shape="1076.659543,1331.048758 1081.409298,1325.861631 1085.707268,1329.496806 1081.227966,1335.211116 1076.659543,1331.048758"/>
    <poly id="68042179" type="building.yes" color="255,230,230" fill="1" layer="-1.00" shape="1058.936876,364.364159 1059.622539,362.570503 1074.565432,368.373090 1073.870167,370.100292 1058.936876,364.364159"/>
    <poly id="68042250" type="building.yes" color="255,230,230" fill="1" layer="-1.00" shape="1416.385296,609.116102 1419.579827,614.276868 1421.686569,617.773464 1420.290965,618.538775 1423.261034,623.771347 1413.954392,629.229067 1410.921332,624.420200 1413.711519,622.845150 1412.107552,620.148245 1408.275719,613.601928 1416.385296,609.116102"/>
    <poly id="68042364" type="building.yes" color="255,230,230" fill="1" layer="-1.00" shape="1586.028800,609.050722 1583.448022,613.432278 1577.682870,610.263664 1580.313338,605.936531 1586.028800,609.050722"/>
    <poly id="68042366" type="building.yes" color="255,230,230" fill="1" layer="-1.00" shape="284.033028,359.631931 284.621689,356.440281 288.119004,339.291381 303.541103,340.969733 299.618635,362.451063 291.249979,360.932521 284.033028,359.631931"/>
    <poly id="68042366#1" type="shop.boutique" color="237,199,255" fill="1" layer="-1.00" shape="284.033028,359.631931 284.621689,356.440281 288.119004,339.291381 303.541103,340.969733 299.618635,362.451063 291.249979,360.932521 284.033028,359.631931"/>
    <poly id="68042389" type="building.yes" color="255,230,230" fill="1" layer="-1.00" shape="1655.848886,1200.565183 1660.890046,1198.216540 1662.327707,1201.772927 1657.549560,1203.971106 1655.848886,1200.565183"/>
    <poly id="68042398" type="building.yes" color="255,230,230" fill="1" layer="-1.00" shape="1382.187737,461.862427 1382.390830,459.090864 1379.981655,458.968167 1380.068116,457.099354 1378.248874,456.996502 1378.276725,456.095783 1379.318118,456.083079 1379.410955,453.080683 1385.965304,453.319713 1385.866819,455.722183 1392.511214,456.014721 1392.736040,453.487128 1403.570024,454.072796 1402.813017,462.990914 1382.187737,461.862427"/>
    <poly id="68042460" type="building.yes" color="255,230,230" fill="1" layer="-1.00" shape="1484.878692,629.707878 1487.015626,627.814427 1489.499819,630.869043 1487.321009,632.696778 1484.878692,629.707878"/>
    <poly id="68042471" type="building.yes" color="255,230,230" fill="1" layer="-1.00" shape="345.362903,795.129368 344.883811,800.974310 339.366713,800.534630 339.466089,798.187665 339.668505,794.704882 345.362903,795.129368"/>
    <poly id="68042565" type="building.yes" color="255,230,230" fill="1" layer="-1.00" shape="1227.784830,1184.873131 1231.038760,1175.353299 1241.618926,1178.655826 1246.766382,1180.249244 1243.708655,1189.875697 1227.784830,1184.873131"/>
    <poly id="68042584" type="building.yes" color="255,230,230" fill="1" layer="-1.00" shape="2028.785672,387.656674 2026.811602,396.002344 2001.774967,389.805297 2003.885961,381.445387 2028.785672,387.656674"/>
    <poly id="68042663" type="building.yes" color="255,230,230" fill="1" layer="-1.00" shape="581.602938,988.524220 577.486814,989.307818 577.705219,991.080748 574.831554,991.469077 574.615958,989.818317 570.940122,990.436225 569.099909,975.721543 580.003425,974.092918 581.602938,988.524220"/>
    <poly id="68042944" type="building.yes" color="255,230,230" fill="1" layer="-1.00" shape="1345.517474,385.549683 1341.988754,381.318897 1347.726937,376.587220 1351.216825,380.885569 1345.517474,385.549683"/>