<?xml version="1.0" encoding="UTF-8"?>

<!-- generated on Thu Dec 19 10:55:04 2019 by Eclipse SUMO polyconvert Version v1_2_0+0959-4eae248
<configuration xmlns:xsi="http://www.w3.org/2001/XMLSchema-instance" xsi:noNamespaceSchemaLocation="http://sumo.dlr.de/xsd/polyconvertConfiguration.xsd">

    <input>
        <net-file value="./scenario/map.net.xml"/>
        <osm-files value="./scenario/../data/map.osm"/>
        <osm.keep-full-type value="true"/>
    </input>

    <output>
        <output-file value="./scenario/map.poly.xml"/>
    </output>

    <processing>
        <poi-layer-offset value="5"/>
    </processing>

    <report>
        <verbose value="true"/>
    </report>

</configuration>
-->

<additional xmlns:xsi="http://www.w3.org/2001/XMLSchema-instance" xsi:noNamespaceSchemaLocation="http://sumo.dlr.de/xsd/additional_file.xsd">
    <location netOffset="-345334.99,-4829121.96" convBoundary="-6124.79,-1591.48,3376.92,4281.38" origBoundary="7.007301,43.585243,7.125304,43.636679" projParameter="+proj=utm +zone=32 +ellps=WGS84 +datum=WGS84 +units=m +no_defs"/>

    <poly id="23197571" type="amenity.parking" color="184,184,179" fill="1" layer="-1.00" shape="295.547599,386.947228 298.940815,388.069198 302.260624,389.159523 311.829824,392.317262 316.407430,383.855469 327.902633,387.191122 335.325619,372.541001 305.797916,359.719612 303.690138,365.324256 295.547599,386.947228"/>
    <poly id="23197572" type="amenity.parking" color="184,184,179" fill="1" layer="-1.00" shape="249.445837,381.330720 248.872967,368.031490 254.887641,360.258839 259.956993,360.175396 265.421825,360.082846 265.468928,357.570401 271.069178,357.396951 284.621689,356.440282 284.033028,359.631931 283.855696,360.347197 283.419157,362.079644 280.239747,374.798568 278.161620,383.091692 249.445837,381.330720"/>
    <poly id="23197575" type="amenity.parking" color="184,184,179" fill="1" layer="-1.00" shape="197.798401,377.909198 209.500594,380.762057 229.183311,383.008788 229.293221,374.460964 229.165962,367.185398 197.786234,367.219528 197.798401,377.909198"/>
    <poly id="321165019" type="waterway.stream" color="181,209,209" fill="0" layer="-4.00" shape="339.145707,1392.932021 349.965879,1373.692034 355.549524,1352.850264 364.853216,1343.135067 380.555440,1347.962907 389.780414,1334.826996"/>
    <poly id="42123500" type="landuse.forest" color="140,196,107" fill="1" layer="-3.00" shape="1456.528913,1222.754377 1474.041936,1194.862577 1515.164767,1131.672466 1427.397557,1112.599205 1405.475667,1087.875999 1339.044915,1007.265835 1275.441932,959.605705 1275.976743,886.664494 1325.830234,849.309167 1313.180709,777.469746 1252.856405,689.708798 1204.590885,746.730085 1142.107175,791.787422 1130.302397,780.879031 1091.336102,754.547069 980.818008,685.918240 1018.458448,799.843786 927.637393,842.919361 910.663938,879.145494 918.264281,947.166496 982.481370,1001.409910 1069.153249,1007.434687 1086.135815,1131.890551 1179.419045,1216.894782 1269.941891,1189.530707 1307.239282,1239.392836 1312.741665,1305.184141 1303.387377,1343.790690 1392.289273,1384.693830 1499.286513,1358.967247 1574.427931,1422.444883 1618.862577,1398.938865 1684.106054,1386.836888 1720.292188,1343.984806 1696.664206,1299.620116 1616.026781,1286.448971 1584.769842,1229.446613 1456.528913,1222.754377"/>
    <poly id="44329006" type="waterway.river" color="181,209,209" fill="0" layer="-4.00" shape="-84.787521,984.677551 -80.259066,985.317501 -70.988743,986.748055 -58.382484,987.179284 -52.596493,987.379066 -23.453705,984.306055 8.904090,976.391824 21.772818,975.250321 37.737980,976.026486 49.207617,976.539705 66.176821,982.337728 82.712117,998.380170 82.736066,1010.969781 82.569662,1023.008171 77.956718,1039.705151 71.136567,1067.476395 68.941271,1085.017703 68.177158,1126.095054 71.059665,1155.142622 77.326477,1201.391650 83.154316,1217.414404 91.518652,1227.889204 110.273719,1237.979886 125.696777,1240.135539 132.716608,1238.529057 136.903009,1234.498782 173.488864,1185.883693 192.795616,1170.170398 209.422715,1160.452857 221.344567,1154.677523 243.226115,1156.084542 261.846750,1166.300978 271.771456,1176.173314 289.764286,1183.326202 299.653757,1191.321423 331.862813,1265.675910 350.225179,1295.900516 381.658601,1331.702555 389.780414,1334.826996 404.991554,1330.598630 447.486534,1318.363793 473.091975,1306.540084 503.248427,1281.254899 525.390593,1259.265628 553.953547,1245.774058 584.180246,1238.267172 599.834031,1230.450960 644.009204,1231.557869 658.133139,1229.544190 693.735077,1242.316253 723.453807,1260.490832 768.956830,1307.472492 775.718445,1312.551041 791.983192,1332.746177 798.848443,1354.646216 796.762419,1376.318432 805.550820,1401.452409 819.150435,1412.485685 829.433270,1417.261190 840.512964,1422.985177 885.400953,1436.567340 908.895535,1439.006229 940.998547,1450.315232 950.435002,1485.424349 960.962306,1499.106403 974.099555,1562.511149 979.874206,1572.801911 994.858959,1590.748853 996.878608,1611.571196 1001.819516,1618.603005 1014.021030,1627.146245 1048.538201,1642.734098 1080.408173,1646.748361 1126.162701,1683.436597 1158.258129,1697.302542 1183.258322,1714.409238 1214.718588,1746.380587 1233.336185,1761.188970 1249.768576,1771.535903 1279.707286,1778.684482 1348.328117,1789.103819 1383.290273,1793.515429 1407.731519,1803.523934 1499.451514,1922.426523 1527.796053,1970.071912 1537.876252,1976.286540 1550.278058,1980.936870 1554.094350,1981.894190 1570.755496,1986.047175 1588.266228,1999.470533 1613.492694,2018.807103 1655.700130,2058.435569"/>
    <poly id="4837841" type="amenity.parking" color="184,184,179" fill="1" layer="-1.00" shape="162.903183,469.955893 175.125127,471.541024 184.183141,486.155944 274.435683,506.700839 284.419634,450.743134 288.357878,432.406178 303.810742,434.728321 332.923762,428.501804 335.017824,420.197219 320.205190,415.871176 305.608889,412.173578 280.911265,417.976254 263.093591,422.720442 254.247769,421.868562 248.537937,413.076999 183.815074,403.267289 181.919500,411.767375 168.189447,437.597494 162.903183,469.955893"/>
    <poly id="532600821" type="building.yes" color="255,230,230" fill="1" layer="-1.00" shape="378.302380,379.919085 362.573308,381.036796 354.208207,389.141262 362.910293,395.674920 379.695457,394.832928 378.302380,379.919085"/>
    <poly id="628410065" type="building.service" color="255,230,230" fill="1" layer="-1.00" shape="482.588399,381.075274 482.177650,381.473650 481.914734,381.979746 481.838983,382.548210 481.940538,383.101484 482.218632,383.606248 482.639192,383.985500 483.169425,384.217771 483.735670,384.260307 484.313969,384.124770 484.815030,383.790991 485.175565,383.315986 485.348167,382.745294 485.334627,382.156659 485.120079,381.605984 484.730014,381.148245 484.231043,380.870806 483.671081,380.750340 483.099320,380.819053 482.588399,381.075274"/>
    <poly id="664589226" type="landuse.retail" color="194,194,130" fill="1" layer="-3.00" shape="87.979143,473.339141 105.443906,428.087446 156.606786,395.438038 252.467859,396.484828 258.242990,418.276177 296.756883,405.443426 303.658076,404.606644 398.273531,422.419167 497.555717,398.799418 591.612038,368.778445 640.150923,379.964051 662.105013,529.574017 674.033300,590.439161 553.793734,649.997281 340.879090,547.096993 283.404875,525.885046 235.308669,510.069158 187.122359,497.011511 87.979143,473.339141"/>
    <poly id="664589228" type="landuse.retail" color="194,194,130" fill="1" layer="-3.00" shape="175.969615,372.245010 133.566925,359.309976 114.305373,352.920063 97.789665,326.231528 84.884804,315.005753 58.532502,297.745083 55.384934,291.872645 55.263007,283.085688 57.794281,277.293394 68.818316,266.838105 87.637385,247.024375 111.329682,213.008046 223.944318,50.474401 242.835263,43.549667 251.035532,32.481919 252.202500,12.675316 269.773163,-13.009656 318.218182,-62.518884 350.807434,-94.994466 366.569017,-103.169139 440.917159,-160.296459 510.771541,-248.889256 611.978308,-220.134938 633.830388,-181.533330 509.917918,-184.863481 493.113935,-143.339761 624.224504,-112.806084 631.107441,-81.072309 643.812296,-60.262213 619.540189,-12.311079 593.201397,-24.429206 535.639773,-50.330820 473.543620,-66.204483 435.788048,73.788646 377.955515,56.462125 351.270828,126.149778 339.229977,124.737925 314.639063,166.785963 307.141609,240.632511 314.440098,243.364728 315.902217,291.780265 346.154192,300.973570 378.455196,225.178201 431.822032,241.162829 389.616513,352.233752 437.205231,367.373499 515.041078,337.813606 562.092010,348.188358 579.556135,352.287297 578.249867,357.640062 396.013949,407.747510 325.641656,398.066471 296.767060,390.808415 279.947338,386.995395 233.710965,383.949016 193.108668,377.294983 175.969615,372.245010"/>
    <poly id="671123496" type="landuse.grass" color="194,194,130" fill="1" layer="-3.00" shape="258.242990,418.276177 252.467859,396.484828 267.263217,395.499488 277.635439,394.604948 303.658076,404.606644 296.756883,405.443426 258.242990,418.276177"/>
    <poly id="671444657" type="landuse.residential" color="235,235,227" fill="1" layer="-3.00" shape="559.539001,733.751110 537.992692,722.045395 514.568699,695.059217 449.510968,665.641759 423.815985,648.420193 383.728523,627.218478 381.296745,631.374861 354.639016,627.765937 257.639615,615.365165 200.927175,598.114562 153.666075,577.179516 119.810650,574.515301 91.322530,546.180459 0.549062,597.201719 -19.056785,607.710757 -40.440283,638.107347 -56.216373,670.741471 -82.269948,700.301488 -121.877292,774.423610 -115.967547,772.631396 -113.537976,766.296865 -108.105377,760.626391 -103.045722,763.632087 -102.378963,768.028251 -105.546913,770.012716 -105.605813,776.203598 -103.585721,782.557601 -97.272420,782.156226 -94.344467,777.821511 -90.384823,776.552178 -80.673789,784.117626 -75.864060,807.075591 -75.572144,829.860066 -70.799260,850.874241 -76.951778,866.629005 -61.569941,868.707437 -32.780681,875.832500 -24.792475,852.845788 -12.449642,850.249554 26.204147,883.849908 30.438524,903.587547 73.070840,913.660644 102.731736,916.932446 137.484551,951.234544 159.813909,990.245894 164.347744,1028.945271 156.916271,1073.643319 170.468374,1080.787172 169.247288,1096.116866 232.792335,1119.921337 249.832113,1088.158855 297.150960,1110.715462 368.328767,1124.488827 374.437354,1099.079000 444.507870,1119.123728 458.455036,1109.068467 532.296600,1101.413493 553.455514,1084.036308 571.537740,1100.699934 610.429045,1101.628139 696.971124,1136.820546 776.018919,1187.465382 808.898315,1237.448604 833.122945,1236.836875 892.118650,1335.603482 1003.086410,1400.653139 1156.795086,1513.985392 1344.915514,1544.714655 1425.811905,1547.775567 1515.795760,1554.218948 1575.045672,1559.732203 1600.703907,1564.324247 1613.437393,1571.800740 1630.898961,1606.360630 1632.575170,1634.502692 1678.035351,1653.844139 1734.529461,1690.413377 1850.372021,1653.744906 1962.253727,1687.663925 1957.172100,1557.868200 1810.338793,1494.299262 1765.672725,1411.777534 1601.105403,1446.537666 1554.396768,1424.924987 1433.243217,1382.701495 1360.720425,1352.946355 1299.723676,1356.220138 1253.255407,1323.669626 1213.277020,1280.136443 1218.806150,1218.715205 1266.584961,1224.533027 1299.025087,1184.942426 1290.090776,1154.066249 1152.581116,1069.595692 1084.091566,1029.305516 1002.347675,1015.633511 946.297540,1016.096685 905.043583,981.184144 836.544138,947.608366 781.437218,918.848433 720.850984,917.672999 665.138951,917.430647 622.450420,918.911804 560.603078,921.189361 546.068377,913.445040 512.498804,878.891458 547.243528,863.424242 572.437629,835.031081 549.541801,823.967544 536.722508,813.227942 533.706401,810.585932 548.279709,783.481505 552.515994,759.826237 559.539001,733.751110"/>
    <poly id="671775684" type="landuse.industrial" color="209,209,204" fill="1" layer="-3.00" shape="1917.184737,1244.851826 1916.604093,1274.634365 1940.026248,1267.522123 1958.433499,1275.247772 1998.681262,1302.833178 2026.322323,1301.581195 2027.553409,1273.039538 2020.460189,1251.588110 2026.575341,1243.925927 2015.678519,1207.204243 1976.288680,1175.832169 1992.154023,1126.910860 1965.078984,1097.758489 1936.923705,1191.975046 1917.184737,1244.851826"/>
    <poly id="671775687" type="landuse.industrial" color="209,209,204" fill="1" layer="-3.00" shape="1828.936289,1132.331642 1826.417905,1124.577275 1867.207533,1099.022664 1909.042870,1082.845309 1939.722032,1076.334412 1960.906558,1092.175291 1965.078984,1097.758489 1936.923705,1191.975046 1828.936289,1132.331642"/>
    <poly id="671775688" type="landuse.industrial" color="209,209,204" fill="1" layer="-3.00" shape="1691.861418,1242.380144 1750.605982,1201.580232 1757.242843,1215.730064 1763.372391,1233.125101 1763.954767,1258.647433 1727.588145,1257.188262 1691.861418,1242.380144"/>
    <poly id="671775689" type="landuse.greenhouse_horticulture" color="194,194,130" fill="1" layer="-3.00" shape="1763.954767,1258.647433 1763.372391,1233.125101 1750.605982,1201.580232 1777.201889,1177.149017 1811.186355,1140.703877 1823.022668,1141.745124 1885.854597,1174.259759 1880.837566,1198.209593 1925.215172,1208.932282 1917.184737,1244.851826 1916.604093,1274.634365 1913.982349,1282.528157 1845.664849,1276.018492 1767.192044,1265.351950 1763.954767,1258.647433"/>
    <poly id="671921128" type="landuse.commercial" color="209,209,204" fill="1" layer="-3.00" shape="428.156057,1613.649176 449.401783,1577.678817 472.750150,1494.133209 467.571364,1470.127771 504.758694,1446.214236 591.576730,1428.960276 644.716931,1433.061302 740.555547,1482.652918 801.828690,1562.131216 787.395090,1615.667856 766.150863,1667.238551 726.234377,1680.578993 716.609484,1726.560178 652.544199,1680.494563 472.504211,1638.164296 428.156057,1613.649176"/>
    <poly id="679227448" type="landuse.residential" color="235,235,227" fill="1" layer="-3.00" shape="1765.201641,-828.830948 1763.538244,-783.833594 1767.468240,-775.122454 1775.247892,-755.909294 1791.885870,-715.862959 1796.571478,-705.179973 1817.408350,-661.262308 1848.473350,-589.186394 1834.511341,-516.117452 1875.226914,-492.221092 1836.172231,-448.216131 1794.593387,-364.405476 1708.340008,-232.793510 1655.984598,-182.883380 1514.860986,-90.564062 1385.294668,1.638605 1309.521369,57.420995 1254.353868,130.667660 1202.975031,172.525232 1099.981032,223.988530 1044.643362,231.512677 934.540759,201.100516 899.126091,202.335086 767.925473,277.986307 658.743475,335.477044 681.564145,502.435472 688.734239,558.298350 701.700971,597.593161 602.169168,639.050804 575.938587,650.499319 572.611966,671.933432 696.696475,733.354511 880.798272,840.538133 960.646500,878.476760 1018.458448,799.843786 980.818008,685.918240 969.239913,648.646876 1012.946298,665.779760 1058.941017,707.018290 1091.336102,754.547069 1130.302397,780.879031 1142.107175,791.787422 1204.590885,746.730085 1252.856405,689.708798 1313.180709,777.469746 1325.830234,849.309167 1275.976743,886.664494 1275.441932,959.605705 1339.044915,1007.265835 1405.475667,1087.875999 1427.397557,1112.599205 1515.164767,1131.672466 1474.041936,1194.862577 1456.528913,1222.754377 1568.399991,1213.385771 1677.527467,1171.189830 1713.706752,1128.337938 1729.923953,1016.013334 1747.700059,936.945102 1738.434482,886.163096 1770.668697,848.679896 1712.824773,732.378219 1730.173818,661.453808 1763.158917,702.138206 1772.606080,736.459074 1794.369205,741.140858 1804.640185,773.709486 1833.026911,834.800867 1872.661510,861.210637 1907.895560,856.818215 1903.876467,870.722153 1996.047388,895.190770 2038.395592,917.772660 2079.447930,960.052685 1992.473636,927.586120 1956.747347,950.402055 1921.880244,993.544845 1907.561728,1011.139409 1942.894983,1056.838167 1998.258866,1118.437710 2041.109959,1146.497470 2070.836418,1155.599112 2091.207737,1100.641619 2058.398767,1075.675351 2079.306232,1045.674465 2073.493239,1030.094349 2108.913329,981.772678 2188.400226,1041.513390 2236.724839,936.082841 2276.504711,900.097374 2318.396527,908.334586 2354.991299,974.830709 2415.154877,956.417691 2414.703400,908.468343 2400.934823,773.703100 2422.534490,763.044873 2496.739031,729.212485 2515.896647,764.624969 2528.385044,943.045268 2543.388992,1069.393039 2638.220244,1087.520439 2665.315988,1126.620188 2653.081227,1156.411282 2681.866085,1173.170917 2873.804241,1152.541258 2950.310087,1111.338823 3014.488751,1101.229856 3033.446062,1106.190189 3099.682596,1088.890465 3145.696420,1061.358895 3192.981464,1045.399843 3251.177737,1042.784548 3262.752721,1047.278952 3322.130041,1029.747536 3376.922039,983.629058 3365.971233,899.491954 3364.653050,802.836437 3359.867365,637.709476 3291.149188,652.251096 3290.480393,620.852649 3288.449615,621.031861 3268.815035,-18.774117 3323.472725,-13.996754 3320.818002,-83.653249 3269.343625,-80.112979 3261.770319,-227.719915 3309.747933,-228.447702 3297.959718,-470.855532 3218.815102,-545.918504 3146.489224,-570.764191 3132.502347,-635.397510 3191.660288,-680.459812 3184.814852,-753.599626 3189.754947,-765.156545 3142.220858,-783.228428 3147.938354,-822.927313 3054.237102,-876.069084 3073.273748,-951.794141 2956.275529,-1049.622534 2891.318665,-1183.963157 2847.280571,-1301.464390 2802.350167,-1357.007036 2787.055113,-1393.252400 2781.214695,-1391.853365 2774.064916,-1390.135759 2759.982836,-1398.495256 2752.901931,-1404.790923 2773.005520,-1449.749737 2729.789993,-1474.095029 2751.571315,-1522.014357 2733.144981,-1553.477213 2665.176800,-1591.484678 2640.104499,-1585.782668 2574.970011,-1567.893520 2488.332502,-1547.571250 2362.118977,-1505.436418 2310.315424,-1496.703626 2313.850990,-1474.759939 2273.934391,-1467.585869 2270.637360,-1489.334945 2245.621321,-1474.076372 2217.680663,-1426.159669 2188.997258,-1363.324717 2203.106812,-1353.077967 2190.944455,-1334.877762 2173.308687,-1338.577108 2150.590589,-1318.203299 2110.553345,-1269.155329 2103.220331,-1219.762210 2122.911278,-1172.928457 2133.915620,-1136.909099 2137.425787,-1087.340383 2175.954636,-1060.603250 2189.963307,-1025.285520 2152.992063,-965.084272 2116.885984,-961.673860 2096.845680,-890.412009 2004.840808,-901.230163 2016.580601,-952.479493 2017.346826,-985.521930 1922.186036,-997.600620 1867.375899,-997.652011 1808.149057,-963.277121 1776.219307,-919.812185 1768.017582,-900.501310 1767.166294,-856.722586 1765.201641,-828.830948"/>
    <poly id="679228460" type="landuse.residential" color="235,235,227" fill="1" layer="-3.00" shape="1819.335562,-490.991589 1834.117307,-583.714282 1831.441102,-596.598835 1794.449406,-679.940535 1769.968533,-737.020629 1755.840736,-767.567783 1752.191288,-789.475340 1661.606886,-806.021642 1665.968843,-785.819414 1596.896894,-784.465198 1544.598042,-778.948484 1491.759505,-749.683608 1419.557429,-705.074437 1367.777879,-686.411451 1329.568543,-670.858656 1330.711858,-659.005964 1227.720790,-606.800915 1195.137550,-572.363235 1155.891295,-545.351292 1101.321881,-535.034152 1035.855028,-556.203109 982.157170,-573.751974 947.500190,-573.813121 873.875427,-553.778582 781.267984,-511.738866 707.146381,-465.555243 667.830166,-404.424374 587.550691,-344.085431 546.126031,-318.542034 522.704058,-266.265265 543.498779,-248.041564 593.550143,-273.849939 636.355683,-179.180012 508.152615,-180.855840 495.000850,-144.516598 631.259174,-115.590198 647.027596,-61.969576 620.349468,-9.073809 480.915263,-59.951194 456.705886,19.113265 437.154870,74.579500 547.296342,127.896129 548.311582,145.007772 484.199660,194.142288 441.654263,246.270452 421.583989,298.081715 403.730509,349.708693 436.990550,364.711512 514.856517,337.162231 580.215719,345.149225 599.939192,341.795565 625.135760,317.625304 654.983215,316.972771 707.965491,295.186979 691.649603,194.129845 653.102649,197.871231 638.784167,111.736399 709.439126,117.802891 761.639576,120.626791 839.481575,146.053697 899.942167,154.478540 904.957619,162.953186 918.433198,185.735144 952.087347,193.297426 1034.739716,215.515927 1067.477556,217.288125 1065.250707,174.379613 1088.961715,168.102460 1109.833429,142.577539 1063.259218,62.448208 1127.038891,33.840106 1215.945884,85.820376 1220.982246,147.788546 1248.548832,116.254745 1267.033872,87.329106 1285.823187,57.929855 1368.202659,-8.071463 1551.645403,-139.730840 1518.175005,-174.213873 1560.934770,-215.305232 1603.815161,-170.135882 1661.925331,-205.309815 1716.753993,-281.689731 1784.785885,-383.316828 1808.101684,-438.208720 1816.400923,-475.890057 1819.335562,-490.991589"/>
    <poly id="68041051" type="building.yes" color="255,230,230" fill="1" layer="-1.00" shape="187.250048,788.426552 194.267770,788.809296 193.848360,795.486296 186.690632,794.984547 187.250048,788.426552"/>
    <poly id="68041096" type="building.yes" color="255,230,230" fill="1" layer="-1.00" shape="1794.860353,695.058913 1790.138683,686.299163 1798.665244,686.282469 1801.089154,690.949821 1802.556185,690.482989 1804.182015,694.146233 1800.736324,696.013871 1803.716986,702.079762 1799.609045,704.295869 1794.860353,695.058913"/>
    <poly id="68041136" type="building.yes" color="255,230,230" fill="1" layer="-1.00" shape="1473.130841,336.516546 1491.446093,331.953157 1492.801308,337.544915 1486.473098,339.078545 1487.481009,342.900302 1478.519486,345.105286 1477.410911,341.119149 1476.927917,339.418922 1474.076679,340.095253 1473.130841,336.516546"/>
    <poly id="68041220" type="building.yes" color="255,230,230" fill="1" layer="-1.00" shape="1093.535547,1222.596198 1089.980628,1231.656296 1078.166608,1248.850889 1049.967782,1227.195169 1068.621244,1203.687613 1093.535547,1222.596198"/>
    <poly id="68041239" type="building.yes" color="255,230,230" fill="1" layer="-1.00" shape="845.121698,725.023584 841.475992,718.517743 846.290276,716.129253 842.608547,709.813144 844.655660,708.588270 846.076851,710.700300 849.625594,708.407531 852.275723,712.347090 856.435556,718.385539 845.121698,725.023584"/>
    <poly id="68041248" type="building.yes" color="255,230,230" fill="1" layer="-1.00" shape="781.626625,512.471861 778.216414,512.361252 776.582543,512.243195 776.631286,510.497465 776.750346,506.538799 778.931248,506.566510 782.339932,506.610482 781.626625,512.471861"/>
    <poly id="68041378" type="building.yes" color="255,230,230" fill="1" layer="-1.00" shape="1129.305498,893.501278 1136.124880,883.121869 1146.574155,890.205398 1145.563175,891.895380 1154.856307,897.505265 1155.751830,896.062397 1165.862294,902.809239 1164.614984,904.404621 1183.489173,916.917982 1182.445839,918.253110 1187.267988,921.498540 1181.665935,929.327558 1148.807633,906.633551 1149.829225,905.054448 1140.502474,899.034190 1139.558533,900.478170 1129.305498,893.501278"/>
    <poly id="68041395" type="building.yes" color="255,230,230" fill="1" layer="-1.00" shape="1352.964117,1380.593031 1351.074512,1368.935181 1359.446405,1367.487959 1361.812811,1378.812650 1356.853097,1379.770649 1352.964117,1380.593031"/>
    <poly id="68041408" type="building.yes" color="255,230,230" fill="1" layer="-1.00" shape="262.296462,725.668850 263.195374,721.225479 259.688166,720.406190 262.143545,711.670981 270.824460,713.793445 274.470149,714.665111 279.830495,716.008441 280.722211,712.654236 287.501558,714.253802 289.530712,714.707111 298.801532,716.849360 297.739534,720.874218 306.683683,722.857318 305.588236,727.182974 306.416036,727.363928 314.779862,729.393741 316.947488,729.899430 323.589608,731.502193 324.684015,727.832184 333.187590,729.969923 333.928689,726.385838 336.922579,727.005853 340.882746,727.859200 343.050114,728.353791 340.977791,737.246829 336.793444,736.476430 335.760897,740.378368 331.091183,739.219110 326.991520,738.268972 326.111948,741.800686 321.591595,740.815790 317.955277,739.999446 317.306309,739.869933 317.213925,740.416559 316.487329,743.578049 312.752887,742.708406 311.738442,742.487301 306.153685,741.215788 307.175331,737.191861 306.486009,737.063278 303.579361,736.374594 297.955779,735.170656 298.683647,732.064695 299.600488,728.398772 296.066635,727.824547 295.606680,729.590871 290.398270,728.532946 291.116298,724.649357 287.422194,723.778798 285.578409,723.310107 283.451387,722.814605 282.455127,726.537922 280.692048,726.067373 277.696616,725.380745 273.813049,724.347875 272.792956,728.438446 267.619264,727.135270 263.961416,726.086093 262.296462,725.668850"/>
    <poly id="68041494" type="building.yes" color="255,230,230" fill="1" layer="-1.00" shape="1434.174728,723.919840 1430.598328,724.657226 1430.021179,722.370212 1433.636409,721.565266 1434.028078,723.156456 1434.174728,723.919840"/>
    <poly id="68041623" type="building.yes" color="255,230,230" fill="1" layer="-1.00" shape="1535.825344,475.718797 1538.925914,474.647870 1542.008563,482.689284 1538.868911,483.816663 1535.825344,475.718797"/>
    <poly id="68041653" type="building.yes" color="255,230,230" fill="1" layer="-1.00" shape="1586.171221,1069.533431 1585.975721,1059.914803 1592.308983,1059.692348 1592.289625,1069.449229 1586.171221,1069.533431"/>
    <poly id="68041760" type="building.yes" color="255,230,230" fill="1" layer="-1.00" shape="415.432106,1055.631039 407.420736,1053.459660 407.814963,1051.994886 408.209190,1050.530112 414.270944,1052.190757 414.986881,1049.618469 416.936501,1050.129203 415.432106,1055.631039"/>
    <poly id="68041792" type="building.yes" color="255,230,230" fill="1" layer="-1.00" shape="1734.375059,344.818811 1727.939279,345.532371 1727.288504,340.368985 1725.580752,340.552408 1724.835503,334.079951 1739.099312,332.443275 1739.781537,339.339430 1733.798486,340.075991 1734.375059,344.818811"/>
    <poly id="68041838" type="building.yes" color="255,230,230" fill="1" layer="-1.00" shape="1405.687068,863.039439 1412.053225,863.893947 1411.155763,870.903998 1404.701093,870.062628 1405.687068,863.039439"/>
    <poly id="68041971" type="building.yes" color="255,230,230" fill="1" layer="-1.00" shape="732.517203,922.527735 731.620384,926.370926 721.550452,923.868642 723.021226,917.945399 731.348397,920.154351 730.911629,922.231250 732.517203,922.527735"/>
    <poly id="68041991" type="building.yes" color="255,230,230" fill="1" layer="-1.00" shape="1991.768306,602.784995 1986.836178,603.564074 1985.628889,597.002115 1985.030165,593.759916 1983.675812,593.857441 1982.123831,584.925351 1992.165417,583.352041 1993.714602,592.161964 1992.156230,592.519712 1993.242428,598.728844 1991.299424,598.862001 1991.768306,602.784995"/>
    <poly id="68042053" type="building.yes" color="255,230,230" fill="1" layer="-1.00" shape="1076.659543,1331.048759 1081.409297,1325.861631 1085.707268,1329.496807 1081.227966,1335.211116 1076.659543,1331.048759"/>
    <poly id="68042179" type="building.yes" color="255,230,230" fill="1" layer="-1.00" shape="1058.936875,364.364160 1059.622539,362.570503 1074.565431,368.373091 1073.870167,370.100293 1058.936875,364.364160"/>
    <poly id="68042250" type="building.yes" color="255,230,230" fill="1" layer="-1.00" shape="1416.385296,609.116103 1419.579826,614.276868 1421.686568,617.773465 1420.290965,618.538775 1423.261034,623.771347 1413.954391,629.229068 1410.921332,624.420201 1413.711518,622.845151 1412.107552,620.148245 1408.275719,613.601929 1416.385296,609.116103"/>
    <poly id="68042364" type="building.yes" color="255,230,230" fill="1" layer="-1.00" shape="1586.028800,609.050723 1583.448022,613.432279 1577.682870,610.263665 1580.313338,605.936532 1586.028800,609.050723"/>
    <poly id="68042366" type="building.yes" color="255,230,230" fill="1" layer="-1.00" shape="284.033028,359.631931 284.621689,356.440282 288.119004,339.291381 303.541102,340.969734 299.618634,362.451064 291.249979,360.932522 284.033028,359.631931"/>
    <poly id="68042366#1" type="shop.boutique" color="237,199,255" fill="1" layer="-1.00" shape="284.033028,359.631931 284.621689,356.440282 288.119004,339.291381 303.541102,340.969734 299.618634,362.451064 291.249979,360.932522 284.033028,359.631931"/>
    <poly id="68042389" type="building.yes" color="255,230,230" fill="1" layer="-1.00" shape="1655.848886,1200.565184 1660.890046,1198.216541 1662.327706,1201.772928 1657.549560,1203.971106 1655.848886,1200.565184"/>
    <poly id="68042398" type="building.yes" color="255,230,230" fill="1" layer="-1.00" shape="1382.187737,461.862428 1382.390829,459.090865 1379.981655,458.968168 1380.068116,457.099354 1378.248874,456.996503 1378.276725,456.095784 1379.318118,456.083079 1379.410955,453.080683 1385.965303,453.319713 1385.866819,455.722184 1392.511213,456.014722 1392.736040,453.487129 1403.570024,454.072796 1402.813016,462.990915 1382.187737,461.862428"/>
    <poly id="68042460" type="building.yes" color="255,230,230" fill="1" layer="-1.00" shape="1484.878692,629.707879 1487.015626,627.814427 1489.499819,630.869044 1487.321009,632.696779 1484.878692,629.707879"/>
    <poly id="68042471" type="building.yes" color="255,230,230" fill="1" layer="-1.00" shape="345.362902,795.129368 344.883811,800.974311 339.366713,800.534631 339.466088,798.187666 339.668505,794.704883 345.362902,795.129368"/>
    <poly id="68042565" type="building.yes" color="255,230,230" fill="1" layer="-1.00" shape="1227.784830,1184.873132 1231.038759,1175.353299 1241.618926,1178.655826 1246.766382,1180.249244 1243.708655,1189.875698 1227.784830,1184.873132"/>
    <poly id="68042584" type="building.yes" color="255,230,230" fill="1" layer="-1.00" shape="2028.785672,387.656674 2026.811602,396.002345 2001.774967,389.805298 2003.885961,381.445387 2028.785672,387.656674"/>
    <poly id="68042663" type="building.yes" color="255,230,230" fill="1" layer="-1.00" shape="581.602938,988.524221 577.486814,989.307819 577.705218,991.080749 574.831554,991.469078 574.615958,989.818318 570.940122,990.436226 569.099909,975.721543 580.003425,974.092919 581.602938,988.524221"/>
    <poly id="68042944" type="building.yes" color="255,230,230" fill="1" layer="-1.00" shape="1345.517473,385.549683 1341.988754,381.318898 1347.726937,376.587221 1351.216825,380.885570 1345.517473,385.549683"/>
    <poly id="68042990" type="building.yes" color="255,230,230" fill="1" layer="-1.00" shape="1060.189897,638.549925 1063.840215,643.855658 1063.285453,644.312859 1062.848546,643.922834 1056.712563,647.486007 1054.104011,642.889803 1060.189897,638.549925"/>